@<TRIPOS>MOLECULE
BindingDB_24848
 43 47 0 0 0
SMALL
NO_CHARGES


@<TRIPOS>ATOM
1    C         5.8348    3.5144   16.6523  C     
2    C         4.7448    5.5603   15.8498  C     
3    C         4.6958    2.8049   16.1393  C     
4    C         3.6270    3.5360   15.5602  C     
5    C         4.2596    1.4809   16.0898  C     
6    C         2.9598    1.4667   15.5467  C     
7    N         5.7734    4.8574   16.4457  N     
8    N         3.6594    4.8787   15.4278  N     
9    N         2.6168    2.7288   15.2164  N     
10   C         7.3038    1.6262   17.3245  C     
11   N         6.9567    3.0148   17.3161  N     
12   C         8.6081    1.4246   18.1935  C     
13   C         9.3999    0.3687   20.4566  C     
14   C         8.2055    0.8096   19.5760  C     
15   C         9.6608    0.4844   17.4981  C     
16   C        10.7624   -0.1190   18.4266  C     
17   N        10.2172   -0.6110   19.7208  N     
18   C         9.0149    2.8328   18.3215  C     
19   C        10.3713    4.7073   19.0810  C     
20   C         9.3152    5.5906   18.7859  C     
21   C         8.1393    5.0829   18.2067  C     
22   C         7.9931    3.7093   17.8998  C     
23   C        10.2103    3.3359   18.8929  C     
24   F        11.4818    5.1727   19.5991  F     
25   H         4.7874    6.5824   15.7389  H     
26   H         4.7326    0.6260   16.4258  H     
27   H         2.3658    0.6510   15.4075  H     
28   H         1.7716    3.0044   14.8066  H     
29   H         6.4833    0.9776   17.7006  H     
30   H         7.5078    1.3890   16.2714  H     
31   H         9.9982    1.2277   20.7668  H     
32   H         9.0190   -0.1152   21.3585  H     
33   H         7.5678    1.4908   20.1390  H     
34   H         7.6127   -0.0860   19.3897  H     
35   H         9.1212   -0.3735   17.0752  H     
36   H        10.1536    1.0198   16.6783  H     
37   H        11.2326   -0.9670   17.9113  H     
38   H        11.5401    0.6200   18.6307  H     
39   H        11.0096   -0.8832   20.3154  H     
40   H         9.6309   -1.4398   19.5642  H     
41   H         9.4071    6.5913   18.9822  H     
42   H         7.4170    5.7663   18.0195  H     
43   H        10.9687    2.7026   19.1483  H     
@<TRIPOS>BOND
     1    1    3 1
     2    1    7 2
     3    1   11 1
     4    2    7 1
     5    2    8 2
     6    3    4 2
     7    3    5 1
     8    4    8 1
     9    4    9 1
    10    5    6 2
    11    6    9 1
    12   10   11 1
    13   10   12 1
    14   11   22 1
    15   12   14 1
    16   12   15 1
    17   12   18 1
    18   13   14 1
    19   13   17 1
    20   15   16 1
    21   16   17 1
    22   18   22 2
    23   18   23 1
    24   19   20 1
    25   19   23 2
    26   19   24 1
    27   20   21 2
    28   21   22 1
    29    2   25 1
    30    5   26 1
    31    6   27 1
    32    9   28 1
    33   10   29 1
    34   10   30 1
    35   13   31 1
    36   13   32 1
    37   14   33 1
    38   14   34 1
    39   15   35 1
    40   15   36 1
    41   16   37 1
    42   16   38 1
    43   17   39 1
    44   17   40 1
    45   20   41 1
    46   21   42 1
    47   23   43 1
@<TRIPOS>PROPERTY_DATA
  Total_Score	| 5.2826
  Crash		| -2.7332
  Polar		| 3.7940
  FragIndex	| 1
  FragRMSD	| 1.134

