@<TRIPOS>MOLECULE
BindingDB_24849
 46 50 0 0 0
SMALL
NO_CHARGES


@<TRIPOS>ATOM
1    C         5.5540    3.5291   16.5452  C     
2    C         4.2507    5.4920   16.0068  C     
3    C         4.4650    2.7430   16.0783  C     
4    C         3.3107    3.3948   15.6228  C     
5    C         4.2027    1.3811   15.9283  C     
6    C         2.9082    1.2591   15.4360  C     
7    N         5.3657    4.8806   16.4753  N     
8    N         3.2049    4.7447   15.5854  N     
9    N         2.3952    2.4850   15.2613  N     
10   C         6.8808    1.7145   17.5957  C     
11   N         6.7114    3.0521   17.1100  N     
12   C         8.1225    1.7006   18.5561  C     
13   C         8.8240    1.2409   21.0386  C     
14   C         7.6766    1.5840   20.0556  C     
15   C         9.0839    0.5219   18.1699  C     
16   C        10.1851    0.2096   19.2120  C     
17   N         9.6008    0.0487   20.5752  N     
18   C         8.6718    3.0472   18.2787  C     
19   C        10.1877    4.9490   18.4279  C     
20   C         9.3723    5.6609   17.5418  C     
21   C         8.2150    5.0697   17.0173  C     
22   C         7.8236    3.7731   17.4326  C     
23   C         9.8528    3.6372   18.7838  C     
24   C        10.6097   -0.3908   21.5818  C     
25   H         4.1877    6.5151   15.9996  H     
26   H         4.8159    0.5945   16.1227  H     
27   H         2.4207    0.3871   15.2347  H     
28   H         1.5056    2.6715   14.9263  H     
29   H         5.9810    1.3797   18.1232  H     
30   H         7.0289    1.0642   16.7337  H     
31   H         9.4782    2.1034   21.1790  H     
32   H         8.3662    1.0315   22.0055  H     
33   H         7.1828    2.5033   20.3874  H     
34   H         6.9386    0.7852   20.1428  H     
35   H         8.4889   -0.3930   18.0488  H     
36   H         9.5661    0.7272   17.2088  H     
37   H        10.6650   -0.7249   18.9166  H     
38   H        10.9561    0.9772   19.2037  H     
39   H         8.9333   -0.7105   20.4762  H     
40   H        11.0368    5.3783   18.8004  H     
41   H         9.6227    6.6108   17.2692  H     
42   H         7.6725    5.5953   16.3358  H     
43   H        10.4729    3.1388   19.4147  H     
44   H        11.0998   -1.3096   21.2513  H     
45   H        10.1263   -0.6048   22.5367  H     
46   H        11.3708    0.3781   21.7377  H     
@<TRIPOS>BOND
     1    1    3 1
     2    1    7 2
     3    1   11 1
     4    2    7 1
     5    2    8 2
     6    3    4 2
     7    3    5 1
     8    4    8 1
     9    4    9 1
    10    5    6 2
    11    6    9 1
    12   10   11 1
    13   10   12 1
    14   11   22 1
    15   12   14 1
    16   12   15 1
    17   12   18 1
    18   13   14 1
    19   13   17 1
    20   15   16 1
    21   16   17 1
    22   17   24 1
    23   18   22 2
    24   18   23 1
    25   19   20 1
    26   19   23 2
    27   20   21 2
    28   21   22 1
    29    2   25 1
    30    5   26 1
    31    6   27 1
    32    9   28 1
    33   10   29 1
    34   10   30 1
    35   13   31 1
    36   13   32 1
    37   14   33 1
    38   14   34 1
    39   15   35 1
    40   15   36 1
    41   16   37 1
    42   16   38 1
    43   17   39 1
    44   19   40 1
    45   20   41 1
    46   21   42 1
    47   23   43 1
    48   24   44 1
    49   24   45 1
    50   24   46 1
@<TRIPOS>PROPERTY_DATA
  Total_Score	| 5.7756
  Crash		| -3.1228
  Polar		| 3.9316
  FragIndex	| 1
  FragRMSD	| 0.865

