@<TRIPOS>MOLECULE
BindingDB_24845
 30 33 0 0 0
SMALL
NO_CHARGES


@<TRIPOS>ATOM
1    C         8.9753    4.4558   17.7775  C     
2    C         8.3257    3.8244   16.5122  C     
3    C         7.0828    2.1340   17.8276  C     
4    C         8.8409    3.5535   18.9382  C     
5    C         9.1030    2.5063   20.8055  C     
6    C         7.9447    2.4923   18.9733  C     
7    N         7.0480    3.1879   16.8206  N     
8    N         9.5802    3.5213   20.0557  N     
9    N         8.1332    1.8582   20.1372  N     
10   C         5.8677    3.6790   16.3219  C     
11   C         4.6556    5.6749   15.7205  C     
12   C         4.6906    2.9272   16.0496  C     
13   C         3.5369    3.6258   15.6703  C     
14   C         4.3428    1.5739   15.9515  C     
15   C         3.0028    1.5186   15.5799  C     
16   N         5.7842    5.0291   16.1132  N     
17   N         3.5192    4.9687   15.5118  N     
18   N         2.5400    2.7659   15.4302  N     
19   Cl        5.2999    0.1823   16.0012  Cl    
20   H        10.0345    4.6442   17.5815  H     
21   H         8.4905    5.4074   18.0145  H     
22   H         8.2572    4.5871   15.7295  H     
23   H         8.9977    3.0525   16.1239  H     
24   H         7.5029    1.2294   17.3862  H     
25   H         6.0922    1.9078   18.2290  H     
26   H         9.4739    2.2299   21.7169  H     
27   H         7.6751    1.0484   20.4234  H     
28   H         4.6599    6.6878   15.5965  H     
29   H         2.4712    0.6689   15.3833  H     
30   H         1.6499    3.0037   15.1312  H     
@<TRIPOS>BOND
     1    1    2 1
     2    1    4 1
     3    2    7 1
     4    3    6 1
     5    3    7 1
     6    4    6 2
     7    4    8 1
     8    5    8 2
     9    5    9 1
    10    6    9 1
    11    7   10 1
    12   10   12 1
    13   10   16 2
    14   11   16 1
    15   11   17 2
    16   12   13 2
    17   12   14 1
    18   13   17 1
    19   13   18 1
    20   14   15 2
    21   14   19 1
    22   15   18 1
    23    1   20 1
    24    1   21 1
    25    2   22 1
    26    2   23 1
    27    3   24 1
    28    3   25 1
    29    5   26 1
    30    9   27 1
    31   11   28 1
    32   15   29 1
    33   18   30 1
@<TRIPOS>PROPERTY_DATA
  Total_Score	| 5.8272
  Crash		| -0.4695
  Polar		| 3.3695
  FragIndex	| 1
  FragRMSD	| 0.315

