@<TRIPOS>MOLECULE
BindingDB_24846
 43 47 0 0 0
SMALL
NO_CHARGES


@<TRIPOS>ATOM
1    C         5.9022    3.8324   16.6956  C     
2    C         4.7528    5.7803   15.8269  C     
3    C         4.7897    3.0576   16.2432  C     
4    C         3.7071    3.7130   15.6299  C     
5    C         4.4193    1.7093   16.2359  C     
6    C         3.1713    1.6058   15.6303  C     
7    N         5.8048    5.1644   16.4305  N     
8    N         3.6865    5.0477   15.4316  N     
9    N         2.7653    2.8309   15.2740  N     
10   C         7.1403    2.0100   17.7868  C     
11   N         7.0053    3.3798   17.3976  N     
12   C         8.4654    1.8240   18.6110  C     
13   C         9.3611    0.8413   20.8750  C     
14   C         8.1477    1.3907   20.0853  C     
15   C         9.4019    0.7671   17.9157  C     
16   C        10.5622    0.2290   18.7886  C     
17   N        10.0901   -0.1965   20.1200  N     
18   C         8.9798    3.2040   18.5484  C     
19   C        10.5319    5.0342   18.9876  C     
20   C         9.6670    5.9088   18.3143  C     
21   C         8.4762    5.4238   17.7371  C     
22   C         8.1078    4.0605   17.8577  C     
23   C        10.1949    3.6772   19.0976  C     
24   H         4.7678    6.7852   15.6678  H     
25   H         4.9373    0.9112   16.6002  H     
26   H         2.6462    0.7434   15.4823  H     
27   H         1.9286    3.0525   14.8310  H     
28   H         6.2680    1.7276   18.3813  H     
29   H         7.1604    1.4040   16.8761  H     
30   H        10.0369    1.6428   21.1696  H     
31   H         9.0009    0.3727   21.7878  H     
32   H         7.6947    2.2144   20.6486  H     
33   H         7.4081    0.5876   20.0459  H     
34   H         8.7904   -0.1012   17.6381  H     
35   H         9.8219    1.1786   16.9946  H     
36   H        11.0068   -0.6394   18.2961  H     
37   H        11.3464    0.9762   18.8887  H     
38   H        10.8960   -0.4997   20.6699  H     
39   H         9.4695   -0.9970   19.9950  H     
40   H        11.4006    5.3943   19.4065  H     
41   H         9.9139    6.8996   18.2506  H     
42   H         7.9038    6.0829   17.2132  H     
43   H        10.8316    3.0668   19.5969  H     
@<TRIPOS>BOND
     1    1    3 1
     2    1    7 2
     3    1   11 1
     4    2    7 1
     5    2    8 2
     6    3    4 2
     7    3    5 1
     8    4    8 1
     9    4    9 1
    10    5    6 2
    11    6    9 1
    12   10   11 1
    13   10   12 1
    14   11   22 1
    15   12   14 1
    16   12   15 1
    17   12   18 1
    18   13   14 1
    19   13   17 1
    20   15   16 1
    21   16   17 1
    22   18   22 2
    23   18   23 1
    24   19   20 1
    25   19   23 2
    26   20   21 2
    27   21   22 1
    28    2   24 1
    29    5   25 1
    30    6   26 1
    31    9   27 1
    32   10   28 1
    33   10   29 1
    34   13   30 1
    35   13   31 1
    36   14   32 1
    37   14   33 1
    38   15   34 1
    39   15   35 1
    40   16   36 1
    41   16   37 1
    42   17   38 1
    43   17   39 1
    44   19   40 1
    45   20   41 1
    46   21   42 1
    47   23   43 1
@<TRIPOS>PROPERTY_DATA
  Total_Score	| 5.5706
  Crash		| -2.7115
  Polar		| 4.0055
  FragIndex	| 1
  FragRMSD	| 1.225

