@<TRIPOS>MOLECULE
BindingDB_29229
 40 41 0 0 0
SMALL
NO_CHARGES


@<TRIPOS>ATOM
1    C        -2.3079   -6.8442  -17.1802  C     
2    C        -2.7815   -5.5189  -17.2789  C     
3    C        -3.9705   -5.1607  -16.6171  C     
4    C        -4.6965   -6.1250  -15.8794  C     
5    C        -4.2795   -7.4939  -15.8395  C     
6    C        -3.0935   -7.8569  -16.5619  C     
7    C        -2.6991   -9.2213  -16.5612  C     
8    N        -4.9142   -8.5099  -15.0835  N     
9    C        -4.2581   -9.6691  -14.8572  C     
10   C        -3.1945  -10.0412  -15.6095  C     
11   O        -4.6173  -10.4659  -14.0014  O     
12   C        -1.8621   -9.8464  -17.5941  C     
13   O        -5.8754   -5.7100  -15.3101  O     
14   C        -5.7784   -4.8529  -14.1590  C     
15   O        -2.1929   -4.6017  -18.1157  O     
16   C        -0.9508   -3.9975  -17.7153  C     
17   O        -1.0383   -7.0843  -17.6270  O     
18   C        -0.0542   -6.9950  -16.5776  C     
19   O        -4.4784   -3.8917  -16.7256  O     
20   C        -3.8890   -2.8943  -15.8682  C     
21   C        -6.2550   -8.3737  -14.5461  C     
22   H        -2.8784  -10.9909  -15.5535  H     
23   H        -1.7993   -9.2451  -18.5006  H     
24   H        -2.2781  -10.8086  -17.9078  H     
25   H        -0.8566  -10.0189  -17.2052  H     
26   H        -4.8801   -5.0245  -13.5608  H     
27   H        -6.6468   -5.0449  -13.5316  H     
28   H        -5.8214   -3.8080  -14.4514  H     
29   H        -0.9494   -3.7279  -16.6564  H     
30   H        -0.8090   -3.0888  -18.3081  H     
31   H        -0.1074   -4.6639  -17.9209  H     
32   H        -0.0954   -6.0412  -16.0430  H     
33   H         0.9185   -7.0729  -17.0388  H     
34   H        -0.1544   -7.8041  -15.8584  H     
35   H        -3.6976   -3.2623  -14.8548  H     
36   H        -4.5848   -2.0576  -15.8030  H     
37   H        -2.9588   -2.5151  -16.2898  H     
38   H        -6.2316   -7.7703  -13.6416  H     
39   H        -6.7213   -9.3244  -14.2914  H     
40   H        -6.9241   -7.9204  -15.2790  H     
@<TRIPOS>BOND
     1    1    2 1
     2    1    6 2
     3    1   17 1
     4    2    3 2
     5    2   15 1
     6    3    4 1
     7    3   19 1
     8    4    5 2
     9    4   13 1
    10    5    6 1
    11    5    8 1
    12    6    7 1
    13    7   10 2
    14    7   12 1
    15    8    9 1
    16    8   21 1
    17    9   10 1
    18    9   11 2
    19   13   14 1
    20   15   16 1
    21   17   18 1
    22   19   20 1
    23   10   22 1
    24   12   23 1
    25   12   24 1
    26   12   25 1
    27   14   26 1
    28   14   27 1
    29   14   28 1
    30   16   29 1
    31   16   30 1
    32   16   31 1
    33   18   32 1
    34   18   33 1
    35   18   34 1
    36   20   35 1
    37   20   36 1
    38   20   37 1
    39   21   38 1
    40   21   39 1
    41   21   40 1
@<TRIPOS>PROPERTY_DATA
  Total_Score	| 4.4242
  Crash		| -1.5969
  Polar		| 1.7078
  FragIndex	| 1
  FragRMSD	| 0.412

