@<TRIPOS>MOLECULE
BindingDB_50332193
 28 30 0 0 0
SMALL
NO_CHARGES


@<TRIPOS>ATOM
1    C        -2.0195   -6.3735  -16.7376  C     
2    N        -4.9803   -8.4911  -15.9227  N     
3    N        -1.6662   -4.1852  -16.9838  N     
4    C        -4.2113   -7.3732  -16.2215  C     
5    C        -2.6121   -5.1147  -16.7916  C     
6    C        -2.8053   -7.5214  -16.4680  C     
7    C        -0.6521   -6.1593  -16.9163  C     
8    C        -0.4638   -4.7801  -17.0318  C     
9    C        -4.7674   -6.0634  -16.2893  C     
10   C        -3.9819   -4.9360  -16.5842  C     
11   C        -4.3987   -9.7330  -15.8620  C     
12   C        -6.4053   -8.4069  -15.6772  C     
13   C        -2.2283   -8.8062  -16.3985  C     
14   C         0.8052   -4.0362  -17.1011  C     
15   C        -3.0286   -9.9196  -16.0951  C     
16   H        -1.8182   -3.2258  -17.0118  H     
17   H         0.0849   -6.8661  -16.8912  H     
18   H        -5.7562   -5.9015  -16.1011  H     
19   H        -4.3948   -4.0041  -16.6121  H     
20   H        -4.9545  -10.5728  -15.6518  H     
21   H        -6.5933   -7.7757  -14.8071  H     
22   H        -6.8813   -9.3707  -15.4793  H     
23   H        -6.9035   -7.9794  -16.5431  H     
24   H        -1.2302   -8.9511  -16.5636  H     
25   H         0.8406   -3.4575  -18.0264  H     
26   H         1.6580   -4.7180  -17.0718  H     
27   H         0.8680   -3.3502  -16.2501  H     
28   H        -2.6174  -10.8554  -16.0439  H     
@<TRIPOS>BOND
     1    1    5 2
     2    1    6 1
     3    1    7 1
     4    2    4 1
     5    2   11 2
     6    2   12 1
     7    3    5 1
     8    3    8 1
     9    4    6 2
    10    4    9 1
    11    5   10 1
    12    6   13 1
    13    7    8 2
    14    8   14 1
    15    9   10 2
    16   11   15 1
    17   13   15 2
    18    3   16 1
    19    7   17 1
    20    9   18 1
    21   10   19 1
    22   11   20 1
    23   12   21 1
    24   12   22 1
    25   12   23 1
    26   13   24 1
    27   14   25 1
    28   14   26 1
    29   14   27 1
    30   15   28 1
@<TRIPOS>PROPERTY_DATA
  Total_Score	| 2.5378
  Crash		| -0.5040
  Polar		| 0.0000
  FragIndex	| 1
  FragRMSD	| 0.847

