@<TRIPOS>MOLECULE
BindingDB_29215
 24 25 0 0 0
SMALL
NO_CHARGES


@<TRIPOS>ATOM
1    C        -2.2658   -6.9378  -17.6985  C     
2    C        -2.7110   -5.6142  -17.8152  C     
3    C        -3.7820   -5.1717  -17.0301  C     
4    C        -4.4159   -6.0569  -16.1470  C     
5    C        -3.9895   -7.4049  -16.0113  C     
6    C        -2.8827   -7.8513  -16.8059  C     
7    C        -2.4444   -9.1912  -16.6749  C     
8    N        -4.5876   -8.3031  -15.1104  N     
9    C        -4.1036   -9.5580  -15.0115  C     
10   C        -3.0748   -9.9978  -15.7912  C     
11   O        -4.5478  -10.3706  -14.2053  O     
12   C        -1.3248   -9.7271  -17.4633  C     
13   C        -5.7055   -7.8803  -14.2802  C     
14   H        -1.4807   -7.2213  -18.2868  H     
15   H        -2.2508   -4.9783  -18.4716  H     
16   H        -4.1018   -4.2016  -17.0858  H     
17   H        -5.1901   -5.6833  -15.5958  H     
18   H        -2.7867  -10.9477  -15.6993  H     
19   H        -1.5489   -9.6477  -18.5300  H     
20   H        -1.1094  -10.7771  -17.2563  H     
21   H        -0.4150   -9.1609  -17.2534  H     
22   H        -5.3858   -7.0635  -13.6288  H     
23   H        -6.1064   -8.6611  -13.6316  H     
24   H        -6.5324   -7.5415  -14.9059  H     
@<TRIPOS>BOND
     1    1    2 1
     2    1    6 2
     3    2    3 2
     4    3    4 1
     5    4    5 2
     6    5    6 1
     7    5    8 1
     8    6    7 1
     9    7   10 2
    10    7   12 1
    11    8    9 1
    12    8   13 1
    13    9   10 1
    14    9   11 2
    15    1   14 1
    16    2   15 1
    17    3   16 1
    18    4   17 1
    19   10   18 1
    20   12   19 1
    21   12   20 1
    22   12   21 1
    23   13   22 1
    24   13   23 1
    25   13   24 1
@<TRIPOS>PROPERTY_DATA
  Total_Score	| 4.2720
  Crash		| -0.3563
  Polar		| 1.7839
  FragIndex	| 1
  FragRMSD	| 0.034

