@<TRIPOS>MOLECULE
BindingDB_29223
 32 33 0 0 0
SMALL
NO_CHARGES


@<TRIPOS>ATOM
1    C        -2.2132   -6.6535  -17.2570  C     
2    C        -2.8328   -5.4248  -17.5145  C     
3    C        -4.0956   -5.1495  -16.9857  C     
4    C        -4.7527   -6.0824  -16.1615  C     
5    C        -4.1820   -7.3788  -15.9399  C     
6    C        -2.9292   -7.6814  -16.5766  C     
7    C        -2.4278   -9.0152  -16.5031  C     
8    N        -4.7562   -8.3743  -15.1076  N     
9    C        -4.1535   -9.5748  -14.9810  C     
10   C        -3.0434   -9.9028  -15.6902  C     
11   O        -4.5470  -10.4412  -14.2034  O     
12   C        -1.3840   -9.5460  -17.3989  C     
13   O        -6.0045   -5.7410  -15.7167  O     
14   C        -6.2746   -4.3647  -15.3470  C     
15   O        -0.9078   -6.7903  -17.6567  O     
16   C        -0.0197   -5.8595  -17.0266  C     
17   C        -5.9697   -8.1235  -14.3426  C     
18   H        -2.3334   -4.7117  -18.0495  H     
19   H        -4.5205   -4.2322  -17.1513  H     
20   H        -2.7221  -10.8499  -15.6453  H     
21   H        -1.5813   -9.2354  -18.4280  H     
22   H        -1.3264  -10.6452  -17.4133  H     
23   H        -0.3979   -9.1767  -17.0816  H     
24   H        -5.5766   -4.0079  -14.5749  H     
25   H        -7.2931   -4.3098  -14.9502  H     
26   H        -6.2227   -3.6944  -16.2098  H     
27   H        -0.1373   -4.8589  -17.4632  H     
28   H         1.0080   -6.1792  -17.2020  H     
29   H        -0.1606   -5.7948  -15.9416  H     
30   H        -5.8063   -7.2821  -13.6707  H     
31   H        -6.2948   -8.9585  -13.7163  H     
32   H        -6.8032   -7.9284  -15.0158  H     
@<TRIPOS>BOND
     1    1    2 1
     2    1    6 2
     3    1   15 1
     4    2    3 2
     5    3    4 1
     6    4    5 2
     7    4   13 1
     8    5    6 1
     9    5    8 1
    10    6    7 1
    11    7   10 2
    12    7   12 1
    13    8    9 1
    14    8   17 1
    15    9   10 1
    16    9   11 2
    17   13   14 1
    18   15   16 1
    19    2   18 1
    20    3   19 1
    21   10   20 1
    22   12   21 1
    23   12   22 1
    24   12   23 1
    25   14   24 1
    26   14   25 1
    27   14   26 1
    28   16   27 1
    29   16   28 1
    30   16   29 1
    31   17   30 1
    32   17   31 1
    33   17   32 1
@<TRIPOS>PROPERTY_DATA
  Total_Score	| 4.7872
  Crash		| -1.5426
  Polar		| 1.7730
  FragIndex	| 1
  FragRMSD	| 0.274

