@<TRIPOS>MOLECULE
BindingDB_29218
 29 30 0 0 0
SMALL
NO_CHARGES


@<TRIPOS>ATOM
1    C        -2.3529   -6.7553  -17.5876  C     
2    C        -2.7963   -5.4228  -17.5314  C     
3    C        -3.7366   -5.0158  -16.5656  C     
4    C        -4.2653   -5.9714  -15.6673  C     
5    C        -3.8247   -7.3113  -15.7352  C     
6    C        -2.8552   -7.7301  -16.6919  C     
7    C        -2.4537   -9.0941  -16.6783  C     
8    N        -4.3313   -8.2376  -14.8642  N     
9    C        -3.9427   -9.5043  -14.8773  C     
10   C        -3.0218   -9.9407  -15.7835  C     
11   O        -4.4242  -10.2638  -14.0502  O     
12   C        -1.4232   -9.5969  -17.5891  C     
13   O        -5.1369   -5.6193  -14.6700  O     
14   C        -6.5252   -5.7540  -15.0143  C     
15   O        -4.1643   -3.7159  -16.6006  O     
16   C        -3.4997   -2.8040  -15.7034  C     
17   H        -1.6632   -7.0010  -18.2983  H     
18   H        -2.4213   -4.7434  -18.1969  H     
19   H        -4.9869   -7.9572  -14.2053  H     
20   H        -2.7681  -10.9019  -15.7682  H     
21   H        -1.7351   -9.4439  -18.6223  H     
22   H        -1.2144  -10.6628  -17.4653  H     
23   H        -0.4877   -9.0583  -17.4221  H     
24   H        -6.8587   -4.8580  -15.5375  H     
25   H        -7.0942   -5.8452  -14.0938  H     
26   H        -6.7321   -6.6326  -15.6265  H     
27   H        -3.8512   -2.9488  -14.6756  H     
28   H        -3.7627   -1.7917  -16.0088  H     
29   H        -2.4089   -2.9047  -15.7346  H     
@<TRIPOS>BOND
     1    1    2 1
     2    1    6 2
     3    2    3 2
     4    3    4 1
     5    3   15 1
     6    4    5 2
     7    4   13 1
     8    5    6 1
     9    5    8 1
    10    6    7 1
    11    7   10 2
    12    7   12 1
    13    8    9 1
    14    9   10 1
    15    9   11 2
    16   13   14 1
    17   15   16 1
    18    1   17 1
    19    2   18 1
    20    8   19 1
    21   10   20 1
    22   12   21 1
    23   12   22 1
    24   12   23 1
    25   14   24 1
    26   14   25 1
    27   14   26 1
    28   16   27 1
    29   16   28 1
    30   16   29 1
@<TRIPOS>PROPERTY_DATA
  Total_Score	| 3.9266
  Crash		| -0.4648
  Polar		| 1.8178
  FragIndex	| 1
  FragRMSD	| 0.292

