@<TRIPOS>MOLECULE
BindingDB_29224
 33 34 0 0 0
SMALL
NO_CHARGES


@<TRIPOS>ATOM
1    C        -2.2316   -6.8694  -17.3769  C     
2    C        -2.5658   -5.5020  -17.2643  C     
3    C        -3.5759   -5.1100  -16.3517  C     
4    C        -4.1931   -6.0702  -15.5342  C     
5    C        -3.8140   -7.4151  -15.6286  C     
6    C        -2.8332   -7.8526  -16.5485  C     
7    C        -2.4836   -9.2273  -16.5743  C     
8    N        -4.3771   -8.3443  -14.7922  N     
9    C        -4.0301   -9.6156  -14.8176  C     
10   C        -3.1225  -10.0844  -15.7220  C     
11   O        -4.5607  -10.3750  -14.0168  O     
12   C        -1.4566   -9.7400  -17.4809  C     
13   O        -5.1000   -5.6793  -14.5796  O     
14   C        -6.4690   -5.6569  -15.0070  C     
15   O        -4.0917   -3.8364  -16.2690  O     
16   O        -1.9524   -4.5748  -18.0841  O     
17   C        -0.6002   -4.2473  -17.6896  C     
18   C        -3.2837   -2.8330  -15.5836  C     
19   H        -1.5231   -7.1296  -18.0717  H     
20   H        -5.0365   -8.0584  -14.1410  H     
21   H        -2.9012  -11.0484  -15.7356  H     
22   H        -1.7164   -9.4983  -18.5155  H     
23   H        -1.3172  -10.8318  -17.4280  H     
24   H        -0.4918   -9.2761  -17.2448  H     
25   H        -6.6369   -4.8305  -15.6947  H     
26   H        -7.0993   -5.5011  -14.1301  H     
27   H        -6.7660   -6.5977  -15.4747  H     
28   H        -0.5705   -3.9079  -16.6523  H     
29   H        -0.2644   -3.4321  -18.3263  H     
30   H         0.0847   -5.0814  -17.8110  H     
31   H        -2.8322   -3.2134  -14.6309  H     
32   H        -3.9535   -1.9805  -15.3303  H     
33   H        -2.4798   -2.4802  -16.2572  H     
@<TRIPOS>BOND
     1    1    2 1
     2    1    6 2
     3    2    3 2
     4    2   16 1
     5    3    4 1
     6    3   15 1
     7    4    5 2
     8    4   13 1
     9    5    6 1
    10    5    8 1
    11    6    7 1
    12    7   10 2
    13    7   12 1
    14    8    9 1
    15    9   10 1
    16    9   11 2
    17   13   14 1
    18   15   18 1
    19   16   17 1
    20    1   19 1
    21    8   20 1
    22   10   21 1
    23   12   22 1
    24   12   23 1
    25   12   24 1
    26   14   25 1
    27   14   26 1
    28   14   27 1
    29   17   28 1
    30   17   29 1
    31   17   30 1
    32   18   31 1
    33   18   32 1
    34   18   33 1
@<TRIPOS>PROPERTY_DATA
  Total_Score	| 4.2604
  Crash		| -0.4433
  Polar		| 1.6481
  FragIndex	| 1
  FragRMSD	| 0.387

