@<TRIPOS>MOLECULE
BindingDB_29216
 25 26 0 0 0
SMALL
NO_CHARGES


@<TRIPOS>ATOM
1    C        -2.3222   -6.7656  -17.6300  C     
2    C        -2.7528   -5.4290  -17.5888  C     
3    C        -3.7085   -5.0200  -16.6438  C     
4    C        -4.2516   -5.9504  -15.7363  C     
5    C        -3.8110   -7.2940  -15.7747  C     
6    C        -2.8405   -7.7304  -16.7272  C     
7    C        -2.4414   -9.0946  -16.6962  C     
8    N        -4.2982   -8.1991  -14.8724  N     
9    C        -3.9070   -9.4685  -14.8669  C     
10   C        -2.9971   -9.9219  -15.7755  C     
11   O        -4.3957  -10.2240  -14.0420  O     
12   C        -1.4553   -9.6249  -17.6413  C     
13   O        -5.0762   -5.5142  -14.7313  O     
14   C        -6.4658   -5.4018  -15.0839  C     
15   H        -1.6250   -7.0238  -18.3286  H     
16   H        -2.3461   -4.7480  -18.2327  H     
17   H        -3.9859   -4.0388  -16.5931  H     
18   H        -4.9394   -7.9017  -14.2068  H     
19   H        -2.7488  -10.8843  -15.7521  H     
20   H        -1.8091   -9.4776  -18.6619  H     
21   H        -1.2607  -10.6926  -17.5150  H     
22   H        -0.5030   -9.1031  -17.5240  H     
23   H        -6.6247   -4.6000  -15.8103  H     
24   H        -7.0219   -5.1564  -14.1766  H     
25   H        -6.8504   -6.3462  -15.4778  H     
@<TRIPOS>BOND
     1    1    2 1
     2    1    6 2
     3    2    3 2
     4    3    4 1
     5    4    5 2
     6    4   13 1
     7    5    6 1
     8    5    8 1
     9    6    7 1
    10    7   10 2
    11    7   12 1
    12    8    9 1
    13    9   10 1
    14    9   11 2
    15   13   14 1
    16    1   15 1
    17    2   16 1
    18    3   17 1
    19    8   18 1
    20   10   19 1
    21   12   20 1
    22   12   21 1
    23   12   22 1
    24   14   23 1
    25   14   24 1
    26   14   25 1
@<TRIPOS>PROPERTY_DATA
  Total_Score	| 3.9804
  Crash		| -0.5390
  Polar		| 1.8333
  FragIndex	| 1
  FragRMSD	| 0.278

