@<TRIPOS>MOLECULE
BindingDB_29220
 29 30 0 0 0
SMALL
NO_CHARGES


@<TRIPOS>ATOM
1    C        -2.2232   -7.0100  -17.6216  C     
2    C        -2.6439   -5.6637  -17.6731  C     
3    C        -3.8101   -5.2845  -16.9739  C     
4    C        -4.4909   -6.1953  -16.1386  C     
5    C        -3.9966   -7.5273  -16.0076  C     
6    C        -2.8770   -7.9599  -16.7884  C     
7    C        -2.4575   -9.3146  -16.6864  C     
8    N        -4.5595   -8.4311  -15.1392  N     
9    C        -4.0893   -9.6711  -14.9983  C     
10   C        -3.1046  -10.1335  -15.8143  C     
11   O        -4.5608  -10.3523  -14.0985  O     
12   C        -1.3705   -9.8514  -17.5106  C     
13   O        -5.6745   -5.7379  -15.5855  O     
14   C        -5.7416   -5.4468  -14.1762  C     
15   O        -1.9945   -4.7659  -18.4865  O     
16   C        -0.8692   -4.1075  -17.8797  C     
17   H        -1.4259   -7.2875  -18.1931  H     
18   H        -4.1686   -4.3311  -17.0776  H     
19   H        -5.2569   -8.1495  -14.5269  H     
20   H        -2.8689  -11.1012  -15.7375  H     
21   H        -1.5977   -9.6970  -18.5703  H     
22   H        -1.2304  -10.9166  -17.3552  H     
23   H        -0.4353   -9.3533  -17.2443  H     
24   H        -5.9972   -6.3434  -13.6002  H     
25   H        -6.5629   -4.7355  -14.0302  H     
26   H        -4.8116   -4.9994  -13.8152  H     
27   H        -1.1418   -3.6325  -16.9268  H     
28   H        -0.5448   -3.3118  -18.5574  H     
29   H        -0.0232   -4.7889  -17.7232  H     
@<TRIPOS>BOND
     1    1    2 1
     2    1    6 2
     3    2    3 2
     4    2   15 1
     5    3    4 1
     6    4    5 2
     7    4   13 1
     8    5    6 1
     9    5    8 1
    10    6    7 1
    11    7   10 2
    12    7   12 1
    13    8    9 1
    14    9   10 1
    15    9   11 2
    16   13   14 1
    17   15   16 1
    18    1   17 1
    19    3   18 1
    20    8   19 1
    21   10   20 1
    22   12   21 1
    23   12   22 1
    24   12   23 1
    25   14   24 1
    26   14   25 1
    27   14   26 1
    28   16   27 1
    29   16   28 1
    30   16   29 1
@<TRIPOS>PROPERTY_DATA
  Total_Score	| 4.8090
  Crash		| -0.5566
  Polar		| 1.8321
  FragIndex	| 1
  FragRMSD	| 0.126

