@<TRIPOS>MOLECULE
BindingDB_29221
 32 33 0 0 0
SMALL
NO_CHARGES


@<TRIPOS>ATOM
1    C        -2.2375   -6.9952  -17.6473  C     
2    C        -2.6349   -5.6589  -17.7669  C     
3    C        -3.7395   -5.2120  -17.0366  C     
4    C        -4.3839   -6.0544  -16.1111  C     
5    C        -4.0006   -7.4272  -15.9676  C     
6    C        -2.9060   -7.8958  -16.7757  C     
7    C        -2.4993   -9.2484  -16.6727  C     
8    N        -4.6111   -8.3444  -15.0729  N     
9    C        -4.1247   -9.6023  -14.9843  C     
10   C        -3.1241  -10.0505  -15.7870  C     
11   O        -4.5399  -10.4164  -14.1660  O     
12   C        -1.4186   -9.8123  -17.4938  C     
13   O        -5.3501   -5.4492  -15.3515  O     
14   C        -4.8082   -4.7482  -14.2183  C     
15   O        -1.9550   -4.8037  -18.5895  O     
16   C        -0.9596   -4.0298  -17.8947  C     
17   C        -5.7579   -7.9817  -14.2463  C     
18   H        -1.4391   -7.2917  -18.2094  H     
19   H        -4.0324   -4.2371  -17.1258  H     
20   H        -2.8531  -11.0078  -15.7146  H     
21   H        -1.6441   -9.6745  -18.5528  H     
22   H        -1.2592  -10.8819  -17.3398  H     
23   H        -0.4782   -9.3070  -17.2615  H     
24   H        -4.1193   -5.3885  -13.6638  H     
25   H        -5.6302   -4.4612  -13.5614  H     
26   H        -4.2828   -3.8446  -14.5308  H     
27   H        -1.3961   -3.4408  -17.0838  H     
28   H        -0.5099   -3.3358  -18.6029  H     
29   H        -0.1697   -4.6717  -17.4966  H     
30   H        -5.4658   -7.2746  -13.4629  H     
31   H        -6.2330   -8.8167  -13.7335  H     
32   H        -6.5436   -7.5493  -14.8664  H     
@<TRIPOS>BOND
     1    1    2 1
     2    1    6 2
     3    2    3 2
     4    2   15 1
     5    3    4 1
     6    4    5 2
     7    4   13 1
     8    5    6 1
     9    5    8 1
    10    6    7 1
    11    7   10 2
    12    7   12 1
    13    8    9 1
    14    8   17 1
    15    9   10 1
    16    9   11 2
    17   13   14 1
    18   15   16 1
    19    1   18 1
    20    3   19 1
    21   10   20 1
    22   12   21 1
    23   12   22 1
    24   12   23 1
    25   14   24 1
    26   14   25 1
    27   14   26 1
    28   16   27 1
    29   16   28 1
    30   16   29 1
    31   17   30 1
    32   17   31 1
    33   17   32 1
@<TRIPOS>PROPERTY_DATA
  Total_Score	| 5.2215
  Crash		| -0.6955
  Polar		| 1.7591
  FragIndex	| 1
  FragRMSD	| 0.070

