@<TRIPOS>MOLECULE
BindingDB_50332194
 34 37 0 0 0
SMALL
NO_CHARGES


@<TRIPOS>ATOM
1    C        -3.0153   -6.8529  -16.5494  C     
2    N        -4.6179   -8.2191  -15.6577  N     
3    C        -4.2241   -6.9361  -15.8365  C     
4    C        -2.6872   -8.1912  -16.8227  C     
5    C        -3.6960   -8.9956  -16.2614  C     
6    C        -2.4179   -5.5749  -16.7975  C     
7    N        -2.4894   -3.1328  -16.4926  N     
8    C        -3.0704   -4.3834  -16.3237  C     
9    C        -4.8781   -5.7828  -15.3871  C     
10   C        -4.3103   -4.5316  -15.6390  C     
11   C        -5.8019   -8.6221  -14.9458  C     
12   C        -1.2801   -3.0148  -17.1219  C     
13   C        -3.1003   -1.9162  -15.9955  C     
14   C        -1.1786   -5.4021  -17.4539  C     
15   C        -1.6111   -8.8085  -17.5014  C     
16   C        -3.6483  -10.4032  -16.3807  C     
17   C        -0.6038   -4.1365  -17.6117  C     
18   C        -1.5528  -10.2087  -17.6030  C     
19   C        -2.5704  -11.0015  -17.0503  C     
20   H        -5.7536   -5.8447  -14.8632  H     
21   H        -4.8188   -3.7240  -15.2765  H     
22   H        -5.7553   -8.2731  -13.9091  H     
23   H        -5.9432   -9.7019  -14.9182  H     
24   H        -6.6856   -8.1867  -15.4201  H     
25   H        -0.8226   -2.1050  -17.2394  H     
26   H        -4.0919   -1.7874  -16.4364  H     
27   H        -2.5377   -1.0052  -16.2134  H     
28   H        -3.1981   -1.9780  -14.9079  H     
29   H        -0.6434   -6.1792  -17.8023  H     
30   H        -0.8642   -8.2782  -17.9338  H     
31   H        -4.3894  -10.9932  -15.9995  H     
32   H         0.3078   -4.0278  -18.0549  H     
33   H        -0.7664  -10.6572  -18.0892  H     
34   H        -2.5294  -12.0211  -17.1421  H     
@<TRIPOS>BOND
     1    1    3 2
     2    1    4 1
     3    1    6 1
     4    2    3 1
     5    2    5 1
     6    2   11 1
     7    3    9 1
     8    4    5 2
     9    4   15 1
    10    5   16 1
    11    6    8 2
    12    6   14 1
    13    7    8 1
    14    7   12 2
    15    7   13 1
    16    8   10 1
    17    9   10 2
    18   12   17 1
    19   14   17 2
    20   15   18 2
    21   16   19 2
    22   18   19 1
    23    9   20 1
    24   10   21 1
    25   11   22 1
    26   11   23 1
    27   11   24 1
    28   12   25 1
    29   13   26 1
    30   13   27 1
    31   13   28 1
    32   14   29 1
    33   15   30 1
    34   16   31 1
    35   17   32 1
    36   18   33 1
    37   19   34 1
@<TRIPOS>PROPERTY_DATA
  Total_Score	| 3.2271
  Crash		| -0.8959
  Polar		| 0.0000
  FragIndex	| 1
  FragRMSD	| 1.276

