@<TRIPOS>MOLECULE
BindingDB_29214
 21 22 0 0 0
SMALL
NO_CHARGES


@<TRIPOS>ATOM
1    C        -2.2856   -6.9484  -17.7037  C     
2    C        -2.7701   -5.6294  -17.7850  C     
3    C        -3.8302   -5.2140  -16.9614  C     
4    C        -4.4100   -6.1167  -16.0553  C     
5    C        -3.9271   -7.4368  -15.9729  C     
6    C        -2.8521   -7.8820  -16.7983  C     
7    C        -2.4238   -9.2292  -16.6524  C     
8    N        -4.4941   -8.3124  -15.0890  N     
9    C        -4.0669   -9.5645  -14.9720  C     
10   C        -3.0431  -10.0273  -15.7465  C     
11   O        -4.6150  -10.2917  -14.1585  O     
12   C        -1.3275   -9.7706  -17.4573  C     
13   H        -1.5166   -7.2133  -18.3190  H     
14   H        -2.3482   -4.9717  -18.4437  H     
15   H        -4.1781   -4.2555  -17.0194  H     
16   H        -5.1810   -5.8087  -15.4569  H     
17   H        -5.2231   -8.0083  -14.5253  H     
18   H        -2.7577  -10.9725  -15.6299  H     
19   H        -1.5810   -9.7049  -18.5163  H     
20   H        -1.1033  -10.8172  -17.2393  H     
21   H        -0.4160   -9.1965  -17.2740  H     
@<TRIPOS>BOND
     1    1    2 1
     2    1    6 2
     3    2    3 2
     4    3    4 1
     5    4    5 2
     6    5    6 1
     7    5    8 1
     8    6    7 1
     9    7   10 2
    10    7   12 1
    11    8    9 1
    12    9   10 1
    13    9   11 2
    14    1   13 1
    15    2   14 1
    16    3   15 1
    17    4   16 1
    18    8   17 1
    19   10   18 1
    20   12   19 1
    21   12   20 1
    22   12   21 1
@<TRIPOS>PROPERTY_DATA
  Total_Score	| 3.5688
  Crash		| -0.3161
  Polar		| 1.7557
  FragIndex	| 1
  FragRMSD	| 0.079

