@<TRIPOS>MOLECULE
BindingDB_29225
 36 37 0 0 0
SMALL
NO_CHARGES


@<TRIPOS>ATOM
1    C        -2.2683   -6.8248  -17.5676  C     
2    C        -2.4793   -5.4472  -17.4389  C     
3    C        -3.4032   -4.9689  -16.4992  C     
4    C        -4.1690   -5.8847  -15.7293  C     
5    C        -3.9158   -7.2971  -15.7968  C     
6    C        -2.9179   -7.7572  -16.7237  C     
7    C        -2.5529   -9.1280  -16.7366  C     
8    N        -4.5318   -8.2739  -14.9713  N     
9    C        -4.0419   -9.5313  -14.9429  C     
10   C        -3.1092   -9.9562  -15.8325  C     
11   O        -4.4070  -10.3680  -14.1203  O     
12   C        -1.5389   -9.6711  -17.6505  C     
13   O        -5.0013   -5.3403  -14.7875  O     
14   C        -6.2746   -4.8451  -15.2391  C     
15   O        -3.5309   -3.6031  -16.4104  O     
16   O        -1.7512   -4.5745  -18.2048  O     
17   C        -0.4674   -4.2647  -17.6300  C     
18   C        -3.0462   -2.9966  -15.1968  C     
19   C        -5.7024   -7.9771  -14.1632  C     
20   H        -1.5769   -7.1247  -18.2562  H     
21   H        -2.8461  -10.9186  -15.8175  H     
22   H        -1.8222   -9.4656  -18.6825  H     
23   H        -1.4000  -10.7525  -17.5667  H     
24   H        -0.5739   -9.2017  -17.4492  H     
25   H        -6.1757   -4.0484  -15.9773  H     
26   H        -6.7967   -4.4388  -14.3748  H     
27   H        -6.8819   -5.6414  -15.6571  H     
28   H        -0.5575   -3.8940  -16.6054  H     
29   H        -0.0019   -3.4856  -18.2322  H     
30   H         0.1848   -5.1416  -17.6417  H     
31   H        -3.7284   -3.1770  -14.3642  H     
32   H        -2.9957   -1.9205  -15.3592  H     
33   H        -2.0506   -3.3459  -14.9205  H     
34   H        -5.4385   -7.2950  -13.3559  H     
35   H        -6.1733   -8.8419  -13.6956  H     
36   H        -6.4764   -7.5391  -14.7884  H     
@<TRIPOS>BOND
     1    1    2 1
     2    1    6 2
     3    2    3 2
     4    2   16 1
     5    3    4 1
     6    3   15 1
     7    4    5 2
     8    4   13 1
     9    5    6 1
    10    5    8 1
    11    6    7 1
    12    7   10 2
    13    7   12 1
    14    8    9 1
    15    8   19 1
    16    9   10 1
    17    9   11 2
    18   13   14 1
    19   15   18 1
    20   16   17 1
    21    1   20 1
    22   10   21 1
    23   12   22 1
    24   12   23 1
    25   12   24 1
    26   14   25 1
    27   14   26 1
    28   14   27 1
    29   17   28 1
    30   17   29 1
    31   17   30 1
    32   18   31 1
    33   18   32 1
    34   18   33 1
    35   19   34 1
    36   19   35 1
    37   19   36 1
@<TRIPOS>PROPERTY_DATA
  Total_Score	| 4.6120
  Crash		| -0.9601
  Polar		| 1.8426
  FragIndex	| 1
  FragRMSD	| 0.297

