@<TRIPOS>MOLECULE
BindingDB_29217
 28 29 0 0 0
SMALL
NO_CHARGES


@<TRIPOS>ATOM
1    C        -2.2607   -6.8838  -17.6252  C     
2    C        -2.6827   -5.5613  -17.7436  C     
3    C        -3.7821   -5.1205  -17.0084  C     
4    C        -4.4943   -5.9930  -16.1533  C     
5    C        -4.0629   -7.3613  -16.0027  C     
6    C        -2.9243   -7.8004  -16.7671  C     
7    C        -2.4699   -9.1395  -16.6496  C     
8    N        -4.6688   -8.3111  -15.1345  N     
9    C        -4.1434   -9.5530  -15.0246  C     
10   C        -3.1056   -9.9660  -15.7958  C     
11   O        -4.5531  -10.3822  -14.2163  O     
12   C        -1.3256   -9.6560  -17.4122  C     
13   C        -5.8236   -7.9758  -14.3138  C     
14   O        -5.6411   -5.5429  -15.5255  O     
15   C        -5.9755   -4.1580  -15.3094  C     
16   H        -1.4687   -7.1656  -18.1974  H     
17   H        -2.1874   -4.9182  -18.3682  H     
18   H        -4.0501   -4.1418  -17.1059  H     
19   H        -2.8052  -10.9163  -15.7242  H     
20   H        -1.5240   -9.5712  -18.4827  H     
21   H        -1.0956  -10.7063  -17.2111  H     
22   H        -0.4283   -9.0837  -17.1705  H     
23   H        -5.5663   -7.1744  -13.6173  H     
24   H        -6.2211   -8.7930  -13.7046  H     
25   H        -6.6481   -7.6686  -14.9519  H     
26   H        -5.1349   -3.6150  -14.8635  H     
27   H        -6.8220   -4.1094  -14.6236  H     
28   H        -6.2699   -3.6828  -16.2469  H     
@<TRIPOS>BOND
     1    1    2 1
     2    1    6 2
     3    2    3 2
     4    3    4 1
     5    4    5 2
     6    4   14 1
     7    5    6 1
     8    5    8 1
     9    6    7 1
    10    7   10 2
    11    7   12 1
    12    8    9 1
    13    8   13 1
    14    9   10 1
    15    9   11 2
    16   14   15 1
    17    1   16 1
    18    2   17 1
    19    3   18 1
    20   10   19 1
    21   12   20 1
    22   12   21 1
    23   12   22 1
    24   13   23 1
    25   13   24 1
    26   13   25 1
    27   15   26 1
    28   15   27 1
    29   15   28 1
@<TRIPOS>PROPERTY_DATA
  Total_Score	| 4.6867
  Crash		| -0.4259
  Polar		| 1.7907
  FragIndex	| 1
  FragRMSD	| 0.075

