@<TRIPOS>MOLECULE
BindingDB_29219
 32 33 0 0 0
SMALL
NO_CHARGES


@<TRIPOS>ATOM
1    C        -2.3032   -6.8138  -17.6320  C     
2    C        -2.6184   -5.4523  -17.5761  C     
3    C        -3.4888   -4.9621  -16.5924  C     
4    C        -4.0725   -5.8682  -15.6704  C     
5    C        -3.8480   -7.2791  -15.7761  C     
6    C        -2.8743   -7.7401  -16.7239  C     
7    C        -2.4743   -9.1005  -16.6926  C     
8    N        -4.4910   -8.2486  -14.9742  N     
9    C        -3.9913   -9.5001  -14.9153  C     
10   C        -3.0116   -9.9168  -15.7619  C     
11   O        -4.4084  -10.3359  -14.1189  O     
12   C        -1.4400   -9.6353  -17.5871  C     
13   O        -4.8618   -5.3395  -14.6831  O     
14   C        -4.1446   -4.7778  -13.5684  C     
15   O        -3.6129   -3.5932  -16.5385  O     
16   C        -4.9087   -3.0264  -16.2678  C     
17   C        -5.7412   -7.9623  -14.2879  C     
18   H        -1.6291   -7.1067  -18.3402  H     
19   H        -2.1694   -4.8077  -18.2319  H     
20   H        -2.7172  -10.8675  -15.7099  H     
21   H        -1.7463   -9.5047  -18.6252  H     
22   H        -1.2373  -10.6998  -17.4419  H     
23   H        -0.5008   -9.1016  -17.4270  H     
24   H        -3.4384   -5.4927  -13.1366  H     
25   H        -4.8735   -4.5061  -12.8061  H     
26   H        -3.6153   -3.8687  -13.8492  H     
27   H        -4.9736   -2.0644  -16.7783  H     
28   H        -5.0216   -2.8485  -15.1975  H     
29   H        -5.7322   -3.6570  -16.6124  H     
30   H        -5.5410   -7.4097  -13.3705  H     
31   H        -6.3115   -8.8517  -14.0094  H     
32   H        -6.4026   -7.3765  -14.9303  H     
@<TRIPOS>BOND
     1    1    2 1
     2    1    6 2
     3    2    3 2
     4    3    4 1
     5    3   15 1
     6    4    5 2
     7    4   13 1
     8    5    6 1
     9    5    8 1
    10    6    7 1
    11    7   10 2
    12    7   12 1
    13    8    9 1
    14    8   17 1
    15    9   10 1
    16    9   11 2
    17   13   14 1
    18   15   16 1
    19    1   18 1
    20    2   19 1
    21   10   20 1
    22   12   21 1
    23   12   22 1
    24   12   23 1
    25   14   24 1
    26   14   25 1
    27   14   26 1
    28   16   27 1
    29   16   28 1
    30   16   29 1
    31   17   30 1
    32   17   31 1
    33   17   32 1
@<TRIPOS>PROPERTY_DATA
  Total_Score	| 4.2785
  Crash		| -0.9057
  Polar		| 1.8838
  FragIndex	| 1
  FragRMSD	| 0.276

