@<TRIPOS>MOLECULE
BindingDB_29227
 36 37 0 0 0
SMALL
NO_CHARGES


@<TRIPOS>ATOM
1    C        -2.3042   -6.9685  -17.3976  C     
2    C        -2.7767   -5.6555  -17.5910  C     
3    C        -3.9672   -5.2616  -16.9766  C     
4    C        -4.6488   -6.1285  -16.1053  C     
5    C        -4.2508   -7.4966  -15.9799  C     
6    C        -3.0742   -7.9332  -16.6869  C     
7    C        -2.6826   -9.2936  -16.5668  C     
8    N        -4.9162   -8.4326  -15.1576  N     
9    C        -4.3276   -9.6176  -14.8979  C     
10   C        -3.2548  -10.0481  -15.6060  C     
11   O        -4.7563  -10.3966  -14.0542  O     
12   C        -1.7697  -10.0104  -17.4643  C     
13   O        -5.6964   -5.5705  -15.4146  O     
14   C        -5.2889   -4.6425  -14.3890  C     
15   O        -2.1209   -4.7559  -18.3900  O     
16   C        -1.0220   -4.0504  -17.7768  C     
17   O        -1.0363   -7.1988  -17.8424  O     
18   C        -0.0379   -7.1988  -16.7975  C     
19   C        -6.2462   -8.1874  -14.6170  C     
20   H        -4.3030   -4.3013  -17.0985  H     
21   H        -2.9625  -10.9945  -15.4848  H     
22   H        -1.5266   -9.4684  -18.3750  H     
23   H        -2.2629  -10.9356  -17.7938  H     
24   H        -0.8598  -10.3072  -16.9433  H     
25   H        -4.5859   -5.0986  -13.6876  H     
26   H        -6.1754   -4.3365  -13.8339  H     
27   H        -4.8327   -3.7486  -14.8221  H     
28   H        -0.9043   -3.0950  -18.2868  H     
29   H        -0.0966   -4.6106  -17.9125  H     
30   H        -1.1723   -3.8488  -16.7109  H     
31   H        -0.3442   -6.7046  -15.8632  H     
32   H         0.8652   -6.6944  -17.1522  H     
33   H         0.2223   -8.2238  -16.5396  H     
34   H        -6.1829   -7.5080  -13.7635  H     
35   H        -6.7630   -9.0882  -14.2723  H     
36   H        -6.8927   -7.7572  -15.3860  H     
@<TRIPOS>BOND
     1    1    2 1
     2    1    6 2
     3    1   17 1
     4    2    3 2
     5    2   15 1
     6    3    4 1
     7    4    5 2
     8    4   13 1
     9    5    6 1
    10    5    8 1
    11    6    7 1
    12    7   10 2
    13    7   12 1
    14    8    9 1
    15    8   19 1
    16    9   10 1
    17    9   11 2
    18   13   14 1
    19   15   16 1
    20   17   18 1
    21    3   20 1
    22   10   21 1
    23   12   22 1
    24   12   23 1
    25   12   24 1
    26   14   25 1
    27   14   26 1
    28   14   27 1
    29   16   28 1
    30   16   29 1
    31   16   30 1
    32   18   31 1
    33   18   32 1
    34   18   33 1
    35   19   34 1
    36   19   35 1
    37   19   36 1
@<TRIPOS>PROPERTY_DATA
  Total_Score	| 5.2991
  Crash		| -1.3886
  Polar		| 1.6670
  FragIndex	| 1
  FragRMSD	| 0.325

