@<TRIPOS>MOLECULE
BindingDB_29222
 29 30 0 0 0
SMALL
NO_CHARGES


@<TRIPOS>ATOM
1    C        -2.2981   -6.7273  -17.3301  C     
2    C        -2.9762   -5.5071  -17.5249  C     
3    C        -4.2502   -5.3049  -16.9737  C     
4    C        -4.8441   -6.3013  -16.1757  C     
5    C        -4.1851   -7.5395  -16.0178  C     
6    C        -2.9343   -7.8055  -16.6503  C     
7    C        -2.4165   -9.1270  -16.5211  C     
8    N        -4.7266   -8.4932  -15.1953  N     
9    C        -4.1297   -9.6560  -14.9774  C     
10   C        -3.0060   -9.9951  -15.6632  C     
11   O        -4.6270  -10.4264  -14.1726  O     
12   C        -1.3339   -9.6151  -17.3731  C     
13   O        -6.0713   -6.1227  -15.5867  O     
14   C        -6.2646   -4.8656  -14.9190  C     
15   O        -1.0024   -6.8017  -17.7637  O     
16   C        -0.1105   -5.9059  -17.0634  C     
17   H        -2.5238   -4.7473  -18.0378  H     
18   H        -4.7224   -4.4104  -17.1113  H     
19   H        -5.5437   -8.2902  -14.7118  H     
20   H        -2.6521  -10.9185  -15.5535  H     
21   H        -1.5637   -9.4084  -18.4188  H     
22   H        -1.1474  -10.6878  -17.2871  H     
23   H        -0.4145   -9.1016  -17.1117  H     
24   H        -5.3862   -4.5504  -14.3531  H     
25   H        -7.0972   -4.9699  -14.2228  H     
26   H        -6.5249   -4.1022  -15.6502  H     
27   H        -0.3102   -5.8428  -15.9912  H     
28   H        -0.1681   -4.9094  -17.4969  H     
29   H         0.9105   -6.2701  -17.1804  H     
@<TRIPOS>BOND
     1    1    2 1
     2    1    6 2
     3    1   15 1
     4    2    3 2
     5    3    4 1
     6    4    5 2
     7    4   13 1
     8    5    6 1
     9    5    8 1
    10    6    7 1
    11    7   10 2
    12    7   12 1
    13    8    9 1
    14    9   10 1
    15    9   11 2
    16   13   14 1
    17   15   16 1
    18    2   17 1
    19    3   18 1
    20    8   19 1
    21   10   20 1
    22   12   21 1
    23   12   22 1
    24   12   23 1
    25   14   24 1
    26   14   25 1
    27   14   26 1
    28   16   27 1
    29   16   28 1
    30   16   29 1
@<TRIPOS>PROPERTY_DATA
  Total_Score	| 4.2557
  Crash		| -1.0896
  Polar		| 1.7519
  FragIndex	| 1
  FragRMSD	| 0.296

