@<TRIPOS>MOLECULE
BindingDB_50379643
 60 63 0 0 0
SMALL
NO_CHARGES


@<TRIPOS>ATOM
1    C        19.6596   -3.2744    9.0019  C     
2    C        20.8368   -3.0111    8.2939  C     
3    C        21.0877   -1.7187    7.7379  C     
4    C        20.0997   -0.7280    8.0122  C     
5    C        18.9008   -1.0406    8.6765  C     
6    N        18.7310   -2.3078    9.1606  N     
7    N        17.9643   -0.0651    8.7705  N     
8    C        16.7191   -0.1289    9.2668  C     
9    S        15.8541   -1.4122   10.0284  S     
10   C        14.4012   -0.5303   10.3007  C     
11   C        14.6593    0.7431    9.7552  C     
12   N        15.8878    0.9301    9.2180  N     
13   C        13.2307   -0.9914   10.9734  C     
14   C        12.0868   -0.1756   11.1247  C     
15   N        11.0318   -0.5967   11.8645  N     
16   C        11.0024   -1.7972   12.4790  C     
17   C        12.1009   -2.6922   12.3935  C     
18   C        13.1976   -2.2604   11.6035  C     
19   C        12.0889   -3.9218   13.0712  C     
20   O        11.0936   -4.2464   13.7105  O     
21   N        22.1963   -1.4677    6.9649  N     
22   C        22.7690   -0.1269    6.8676  C     
23   C        23.9535    0.0103    5.8696  C     
24   N        23.5682   -0.6076    4.6106  N     
25   C        23.0537   -1.9682    4.6969  C     
26   C        22.8404   -2.4994    6.1506  C     
27   C        23.6227    0.0448    3.4378  C     
28   C        23.0838   -0.4612    2.1864  C     
29   O        24.1246    1.1596    3.3743  O     
30   N        13.1593   -4.7127   13.1020  N     
31   C        13.3513   -5.9112   13.8665  C     
32   C        14.4259   -5.6873   14.9552  C     
33   N        14.0996   -4.5156   15.7737  N     
34   H        19.4805   -4.2114    9.3760  H     
35   H        21.5209   -3.7600    8.2120  H     
36   H        20.1927    0.2192    7.6325  H     
37   H        18.2387    0.7993    8.4166  H     
38   H        13.9865    1.5066    9.7766  H     
39   H        12.0299    0.7473   10.7039  H     
40   H        10.1749   -2.0240   13.0394  H     
41   H        13.9957   -2.8854   11.4814  H     
42   H        22.0240    0.5895    6.5100  H     
43   H        23.1157    0.1957    7.8570  H     
44   H        24.2201    1.0679    5.7772  H     
45   H        24.8368   -0.5032    6.2606  H     
46   H        22.0748   -2.0296    4.2038  H     
47   H        23.7334   -2.6522    4.1799  H     
48   H        23.8052   -2.7512    6.6053  H     
49   H        22.2500   -3.4138    6.0585  H     
50   H        23.5437   -1.4148    1.9357  H     
51   H        23.2601    0.2243    1.3520  H     
52   H        22.0055   -0.5926    2.2793  H     
53   H        13.9366   -4.4251   12.6022  H     
54   H        12.4290   -6.2638   14.3429  H     
55   H        13.6952   -6.6887   13.1787  H     
56   H        14.4846   -6.5667   15.6031  H     
57   H        15.4031   -5.5335   14.4951  H     
58   H        14.1256   -3.6718   15.1948  H     
59   H        14.7529   -4.4047   16.5513  H     
60   H        13.1616   -4.6253   16.1555  H     
@<TRIPOS>BOND
     1    1    2 2
     2    1    6 1
     3    2    3 1
     4    3    4 2
     5    3   21 1
     6    4    5 1
     7    5    6 2
     8    5    7 1
     9    7    8 1
    10    8    9 1
    11    8   12 2
    12    9   10 1
    13   10   11 2
    14   10   13 1
    15   11   12 1
    16   13   14 2
    17   13   18 1
    18   14   15 1
    19   15   16 2
    20   16   17 1
    21   17   18 2
    22   17   19 1
    23   19   20 2
    24   19   30 am
    25   21   22 1
    26   21   26 1
    27   22   23 1
    28   23   24 1
    29   24   25 1
    30   24   27 am
    31   25   26 1
    32   27   28 1
    33   27   29 2
    34   30   31 1
    35   31   32 1
    36   32   33 1
    37    1   34 1
    38    2   35 1
    39    4   36 1
    40    7   37 1
    41   11   38 1
    42   14   39 1
    43   16   40 1
    44   18   41 1
    45   22   42 1
    46   22   43 1
    47   23   44 1
    48   23   45 1
    49   25   46 1
    50   25   47 1
    51   26   48 1
    52   26   49 1
    53   28   50 1
    54   28   51 1
    55   28   52 1
    56   30   53 1
    57   31   54 1
    58   31   55 1
    59   32   56 1
    60   32   57 1
    61   33   58 1
    62   33   59 1
    63   33   60 1
@<TRIPOS>PROPERTY_DATA
  Total_Score	| 11.9903
  Crash		| -0.7976
  Polar		| 5.6105
  FragIndex	| 1
  FragRMSD	| 0.480

