@<TRIPOS>MOLECULE
BindingDB_50379763
 56 59 0 0 0
SMALL
NO_CHARGES


@<TRIPOS>ATOM
1    C        21.0641   -1.7191    7.7295  C     
2    C        20.7857   -3.0119    8.2433  C     
3    C        19.5866   -3.2734    8.9247  C     
4    N        18.6749   -2.2857    9.0800  N     
5    C        18.8627   -1.0256    8.6109  C     
6    C        20.0697   -0.7270    7.9421  C     
7    N        17.9382   -0.0344    8.7427  N     
8    C        16.6787   -0.1019    9.2276  C     
9    S        15.7881   -1.4073    9.9146  S     
10   C        14.3697   -0.5032   10.2886  C     
11   C        14.6524    0.7934    9.8300  C     
12   N        15.8786    0.9805    9.2821  N     
13   C        13.2083   -0.9714   10.9719  C     
14   C        12.0291   -0.1965   11.0628  C     
15   N        10.9628   -0.6384   11.7664  N     
16   C        10.9535   -1.8288   12.4135  C     
17   C        12.0827   -2.6869   12.3867  C     
18   C        13.1984   -2.2219   11.6407  C     
19   N        22.2209   -1.4318    7.0381  N     
20   C        22.8752   -0.1302    7.0876  C     
21   C        24.3569   -0.2835    7.5174  C     
22   N        25.0564   -1.3075    6.7081  N     
23   C        24.3537   -2.6113    6.6575  C     
24   C        22.8943   -2.4024    6.1858  C     
25   C        12.0855   -3.9079   13.0794  C     
26   N        13.1550   -4.7035   13.1076  N     
27   C        13.3423   -5.9073   13.8682  C     
28   C        14.4377   -5.6948   14.9446  C     
29   N        14.1223   -4.5393   15.7903  N     
30   O        11.0907   -4.2361   13.7163  O     
31   H        21.4675   -3.7669    8.1722  H     
32   H        19.3944   -4.1969    9.3029  H     
33   H        20.1724    0.2061    7.5370  H     
34   H        18.2269    0.8518    8.4618  H     
35   H        14.0134    1.5759    9.9328  H     
36   H        11.9471    0.7089   10.5975  H     
37   H        10.1014   -2.0845   12.9185  H     
38   H        14.0384   -2.8002   11.5926  H     
39   H        22.8265    0.3384    6.0998  H     
40   H        22.4219    0.5570    7.8018  H     
41   H        24.8760    0.6688    7.3996  H     
42   H        24.4046   -0.5685    8.5712  H     
43   H        25.1491   -0.9552    5.7509  H     
44   H        25.9967   -1.4513    7.0912  H     
45   H        24.8844   -3.2697    5.9621  H     
46   H        24.3665   -3.0774    7.6482  H     
47   H        22.4008   -3.3714    6.1195  H     
48   H        22.9186   -2.0150    5.1625  H     
49   H        13.9292   -4.4130   12.6050  H     
50   H        12.4216   -6.2438   14.3548  H     
51   H        13.6579   -6.6927   13.1782  H     
52   H        14.5096   -6.5876   15.5726  H     
53   H        15.4105   -5.5357   14.4654  H     
54   H        14.1434   -3.6841   15.2235  H     
55   H        14.7879   -4.4459   16.5611  H     
56   H        13.1867   -4.6550   16.1853  H     
@<TRIPOS>BOND
     1    1    2 2
     2    1    6 1
     3    1   19 1
     4    2    3 1
     5    3    4 2
     6    4    5 1
     7    5    6 2
     8    5    7 1
     9    7    8 1
    10    8    9 1
    11    8   12 2
    12    9   10 1
    13   10   11 2
    14   10   13 1
    15   11   12 1
    16   13   14 2
    17   13   18 1
    18   14   15 1
    19   15   16 2
    20   16   17 1
    21   17   18 2
    22   17   25 1
    23   19   20 1
    24   19   24 1
    25   20   21 1
    26   21   22 1
    27   22   23 1
    28   23   24 1
    29   25   26 am
    30   25   30 2
    31   26   27 1
    32   27   28 1
    33   28   29 1
    34    2   31 1
    35    3   32 1
    36    6   33 1
    37    7   34 1
    38   11   35 1
    39   14   36 1
    40   16   37 1
    41   18   38 1
    42   20   39 1
    43   20   40 1
    44   21   41 1
    45   21   42 1
    46   22   43 1
    47   22   44 1
    48   23   45 1
    49   23   46 1
    50   24   47 1
    51   24   48 1
    52   26   49 1
    53   27   50 1
    54   27   51 1
    55   28   52 1
    56   28   53 1
    57   29   54 1
    58   29   55 1
    59   29   56 1
@<TRIPOS>PROPERTY_DATA
  Total_Score	| 11.4260
  Crash		| -0.7220
  Polar		| 5.6273
  FragIndex	| 1
  FragRMSD	| 0.545

