@<TRIPOS>MOLECULE
BindingDB_50379765
 56 59 0 0 0
SMALL
NO_CHARGES


@<TRIPOS>ATOM
1    F        26.3417   -1.7606    7.1403  F     
2    C        25.1101   -1.5136    6.5817  C     
3    F        25.3346   -1.0623    5.3013  F     
4    C        21.0607   -1.7840    7.7028  C     
5    C        20.7767   -3.0643    8.2500  C     
6    C        19.5766   -3.2960    8.9439  C     
7    N        18.6809   -2.2928    9.0849  N     
8    C        18.8829   -1.0436    8.5948  C     
9    C        20.0867   -0.7702    7.9143  C     
10   N        17.9691   -0.0439    8.7139  N     
11   C        16.7142   -0.1049    9.2128  C     
12   S        15.8268   -1.4051    9.9066  S     
13   C        14.4041   -0.5034   10.2592  C     
14   C        14.6908    0.7954    9.8055  C     
15   N        15.9197    0.9783    9.2604  N     
16   C        13.2357   -0.9730   10.9286  C     
17   C        12.0517   -0.1987   10.9788  C     
18   N        10.9802   -0.6323   11.6780  N     
19   C        10.9662   -1.8052   12.3519  C     
20   C        12.0946   -2.6642   12.3497  C     
21   C        13.2185   -2.2129   11.6048  C     
22   N        22.2068   -1.5436    6.9743  N     
23   C        22.8187   -2.5482    6.1167  C     
24   C        24.2800   -2.8270    6.5461  C     
25   C        24.3735   -0.4210    7.4059  C     
26   C        22.8882   -0.2550    6.9846  C     
27   C        12.0888   -3.8658   13.0699  C     
28   N        13.1559   -4.6629   13.1288  N     
29   C        13.3166   -5.8620   13.8948  C     
30   C        14.4108   -5.6733   14.9761  C     
31   N        14.1261   -4.5048   15.8258  N     
32   O        11.0875   -4.1817   13.7054  O     
33   H        21.4486   -3.8335    8.1831  H     
34   H        19.3725   -4.2164    9.3397  H     
35   H        20.2056    0.1514    7.4942  H     
36   H        18.2589    0.8299    8.4166  H     
37   H        14.0515    1.5779    9.9059  H     
38   H        11.9711    0.6901   10.4889  H     
39   H        10.1131   -2.0454   12.8619  H     
40   H        14.0547   -2.7981   11.5689  H     
41   H        22.2725   -3.4919    6.0784  H     
42   H        22.8193   -2.1740    5.0883  H     
43   H        24.7383   -3.5366    5.8519  H     
44   H        24.2743   -3.2848    7.5403  H     
45   H        24.3981   -0.6962    8.4663  H     
46   H        24.8921    0.5372    7.3024  H     
47   H        22.8320    0.1961    5.9883  H     
48   H        22.4508    0.4563    7.6914  H     
49   H        13.9422   -4.3839   12.6309  H     
50   H        12.3904   -6.1718   14.3833  H     
51   H        13.6172   -6.6697   13.2219  H     
52   H        14.4528   -6.5658   15.6167  H     
53   H        15.3968   -5.5414   14.5134  H     
54   H        14.2152   -3.6521   15.2648  H     
55   H        14.7608   -4.4465   16.6295  H     
56   H        13.1708   -4.5829   16.1762  H     
@<TRIPOS>BOND
     1    1    2 1
     2    2    3 1
     3    2   24 1
     4    2   25 1
     5    4    5 2
     6    4    9 1
     7    4   22 1
     8    5    6 1
     9    6    7 2
    10    7    8 1
    11    8    9 2
    12    8   10 1
    13   10   11 1
    14   11   12 1
    15   11   15 2
    16   12   13 1
    17   13   14 2
    18   13   16 1
    19   14   15 1
    20   16   17 2
    21   16   21 1
    22   17   18 1
    23   18   19 2
    24   19   20 1
    25   20   21 2
    26   20   27 1
    27   22   23 1
    28   22   26 1
    29   23   24 1
    30   25   26 1
    31   27   28 am
    32   27   32 2
    33   28   29 1
    34   29   30 1
    35   30   31 1
    36    5   33 1
    37    6   34 1
    38    9   35 1
    39   10   36 1
    40   14   37 1
    41   17   38 1
    42   19   39 1
    43   21   40 1
    44   23   41 1
    45   23   42 1
    46   24   43 1
    47   24   44 1
    48   25   45 1
    49   25   46 1
    50   26   47 1
    51   26   48 1
    52   28   49 1
    53   29   50 1
    54   29   51 1
    55   30   52 1
    56   30   53 1
    57   31   54 1
    58   31   55 1
    59   31   56 1
@<TRIPOS>PROPERTY_DATA
  Total_Score	| 11.1794
  Crash		| -0.7703
  Polar		| 5.6241
  FragIndex	| 1
  FragRMSD	| 0.545

