@<TRIPOS>MOLECULE
BindingDB_50379639
 55 59 0 0 0
SMALL
NO_CHARGES


@<TRIPOS>ATOM
1    C        19.5903   -3.3243    9.0478  C     
2    C        20.8207   -3.0715    8.4309  C     
3    C        21.1269   -1.7974    7.8561  C     
4    C        20.1252   -0.7972    8.0617  C     
5    C        18.8899   -1.0877    8.6768  C     
6    N        18.6735   -2.3427    9.1569  N     
7    N        17.9585   -0.1039    8.7731  N     
8    C        16.7123   -0.1608    9.2832  C     
9    S        15.8249   -1.4219   10.0499  S     
10   C        14.3918   -0.5035   10.3338  C     
11   C        14.6873    0.7663    9.7971  C     
12   N        15.9112    0.9270    9.2476  N     
13   C        13.2196   -0.9311   11.0147  C     
14   C        12.0691   -0.1198   11.1085  C     
15   N        10.9945   -0.5222   11.8212  N     
16   C        10.9446   -1.7054   12.4736  C     
17   C        12.0504   -2.5947   12.4451  C     
18   C        13.1769   -2.1803   11.6886  C     
19   C        12.0351   -3.8005   13.1567  C     
20   O        10.9825   -4.1612   13.6614  O     
21   N        22.3067   -1.5526    7.1810  N     
22   C        22.8027   -0.1939    7.0003  C     
23   C        24.1634   -0.0708    6.2572  C     
24   O        24.1040   -0.8520    5.0540  O     
25   C        23.7482   -2.2411    5.2317  C     
26   C        23.1408   -2.6148    6.6203  C     
27   N        13.1438   -4.4978   13.3713  N     
28   C        13.3177   -5.6031   14.1545  C     
29   C        14.5773   -6.0286   14.5998  C     
30   C        14.5592   -7.1464   15.4512  C     
31   C        13.2878   -7.6650   15.7132  C     
32   S        12.1652   -6.6905   14.8441  S     
33   C        12.9725   -8.8049   16.5890  C     
34   H        19.3835   -4.2472    9.4582  H     
35   H        21.5035   -3.8289    8.4260  H     
36   H        20.2549    0.1482    7.7108  H     
37   H        18.2372    0.7649    8.4406  H     
38   H        14.0316    1.5503    9.8258  H     
39   H        12.0127    0.7852   10.6368  H     
40   H        10.1141   -1.9285   13.0107  H     
41   H        13.9881   -2.7977   11.6141  H     
42   H        22.0854    0.3749    6.4031  H     
43   H        22.9045    0.2983    7.9709  H     
44   H        24.3483    0.9687    5.9849  H     
45   H        25.0016   -0.4137    6.8840  H     
46   H        23.0213   -2.4660    4.4454  H     
47   H        24.6399   -2.8509    5.0428  H     
48   H        23.9714   -2.7915    7.3136  H     
49   H        22.6301   -3.5612    6.4692  H     
50   H        13.9622   -4.1293   13.0085  H     
51   H        15.4398   -5.5468   14.3454  H     
52   H        15.4141   -7.5393   15.8527  H     
53   H        13.5002   -9.6886   16.2345  H     
54   H        11.9043   -9.0148   16.5989  H     
55   H        13.2935   -8.5858   17.6070  H     
@<TRIPOS>BOND
     1    1    2 2
     2    1    6 1
     3    2    3 1
     4    3    4 2
     5    3   21 1
     6    4    5 1
     7    5    6 2
     8    5    7 1
     9    7    8 1
    10    8    9 1
    11    8   12 2
    12    9   10 1
    13   10   11 2
    14   10   13 1
    15   11   12 1
    16   13   14 2
    17   13   18 1
    18   14   15 1
    19   15   16 2
    20   16   17 1
    21   17   18 2
    22   17   19 1
    23   19   20 2
    24   19   27 am
    25   21   22 1
    26   21   26 1
    27   22   23 1
    28   23   24 1
    29   24   25 1
    30   25   26 1
    31   27   28 1
    32   28   29 2
    33   28   32 1
    34   29   30 1
    35   30   31 2
    36   31   32 1
    37   31   33 1
    38    1   34 1
    39    2   35 1
    40    4   36 1
    41    7   37 1
    42   11   38 1
    43   14   39 1
    44   16   40 1
    45   18   41 1
    46   22   42 1
    47   22   43 1
    48   23   44 1
    49   23   45 1
    50   25   46 1
    51   25   47 1
    52   26   48 1
    53   26   49 1
    54   27   50 1
    55   29   51 1
    56   30   52 1
    57   33   53 1
    58   33   54 1
    59   33   55 1
@<TRIPOS>PROPERTY_DATA
  Total_Score	| 9.3883
  Crash		| -0.9260
  Polar		| 3.0742
  FragIndex	| 1
  FragRMSD	| 0.400

