@<TRIPOS>MOLECULE
BindingDB_50379642
 61 64 0 0 0
SMALL
NO_CHARGES


@<TRIPOS>ATOM
1    O        27.3840   -2.3147    6.0133  O     
2    S        26.4801   -1.2278    5.2789  S     
3    O        27.1457    0.1622    5.6756  O     
4    C        19.6727   -3.2919    8.9886  C     
5    C        20.8472   -3.0554    8.2651  C     
6    C        21.1180   -1.7809    7.6830  C     
7    C        20.1635   -0.7593    7.9891  C     
8    C        18.9801   -1.0334    8.6984  C     
9    N        18.7787   -2.2921    9.1687  N     
10   N        18.0352   -0.0612    8.7954  N     
11   C        16.7803   -0.1527    9.2688  C     
12   S        15.9312   -1.4224   10.0714  S     
13   C        14.4483   -0.5736   10.2688  C     
14   C        14.6906    0.6807    9.6822  C     
15   N        15.9366    0.8892    9.1890  N     
16   C        13.2820   -1.0202   10.9589  C     
17   C        12.1496   -0.1878   11.1097  C     
18   N        11.0831   -0.5894   11.8386  N     
19   C        11.0337   -1.7864   12.4660  C     
20   C        12.1208   -2.6934   12.3892  C     
21   C        13.2258   -2.2845   11.5948  C     
22   C        12.1037   -3.9085   13.0931  C     
23   O        11.0985   -4.2197   13.7281  O     
24   N        22.1971   -1.5394    6.8541  N     
25   C        22.8304   -0.2274    6.7808  C     
26   C        24.0980   -0.1204    5.8719  C     
27   N        24.9013   -1.3151    5.8900  N     
28   C        24.3086   -2.6023    6.1388  C     
29   C        22.7677   -2.5570    5.9745  C     
30   C        26.5533   -1.4080    3.4868  C     
31   N        13.1596   -4.7157   13.1287  N     
32   C        13.3092   -5.9438   13.8535  C     
33   C        14.3676   -5.7950   14.9788  C     
34   N        14.1471   -4.5846   15.7888  N     
35   H        19.4801   -4.2116    9.3941  H     
36   H        21.4950   -3.8311    8.1876  H     
37   H        20.2831    0.1892    7.6245  H     
38   H        18.2992    0.8068    8.4503  H     
39   H        14.0030    1.4255    9.6483  H     
40   H        12.0956    0.7356   10.6873  H     
41   H        10.1948   -2.0054   13.0077  H     
42   H        14.0246   -2.9111   11.4884  H     
43   H        22.1291    0.5158    6.4112  H     
44   H        23.1319    0.0441    7.7993  H     
45   H        23.7681    0.0488    4.8378  H     
46   H        24.6704    0.7568    6.1949  H     
47   H        24.7084   -3.3644    5.4604  H     
48   H        24.5471   -2.9001    7.1666  H     
49   H        22.3801   -3.5688    6.0795  H     
50   H        22.5365   -2.2716    4.9309  H     
51   H        27.5959   -1.3794    3.1610  H     
52   H        26.0031   -0.5868    3.0208  H     
53   H        26.1044   -2.3598    3.1932  H     
54   H        13.9451   -4.4295   12.6430  H     
55   H        12.3717   -6.2927   14.2929  H     
56   H        13.6479   -6.7006   13.1428  H     
57   H        14.3131   -6.6745   15.6323  H     
58   H        15.3744   -5.7529   14.5499  H     
59   H        14.3059   -3.7599   15.2001  H     
60   H        14.7806   -4.5486   16.5891  H     
61   H        13.1855   -4.5787   16.1359  H     
@<TRIPOS>BOND
     1    1    2 2
     2    2    3 2
     3    2   27 1
     4    2   30 1
     5    4    5 2
     6    4    9 1
     7    5    6 1
     8    6    7 2
     9    6   24 1
    10    7    8 1
    11    8    9 2
    12    8   10 1
    13   10   11 1
    14   11   12 1
    15   11   15 2
    16   12   13 1
    17   13   14 2
    18   13   16 1
    19   14   15 1
    20   16   17 2
    21   16   21 1
    22   17   18 1
    23   18   19 2
    24   19   20 1
    25   20   21 2
    26   20   22 1
    27   22   23 2
    28   22   31 am
    29   24   25 1
    30   24   29 1
    31   25   26 1
    32   26   27 1
    33   27   28 1
    34   28   29 1
    35   31   32 1
    36   32   33 1
    37   33   34 1
    38    4   35 1
    39    5   36 1
    40    7   37 1
    41   10   38 1
    42   14   39 1
    43   17   40 1
    44   19   41 1
    45   21   42 1
    46   25   43 1
    47   25   44 1
    48   26   45 1
    49   26   46 1
    50   28   47 1
    51   28   48 1
    52   29   49 1
    53   29   50 1
    54   30   51 1
    55   30   52 1
    56   30   53 1
    57   31   54 1
    58   32   55 1
    59   32   56 1
    60   33   57 1
    61   33   58 1
    62   34   59 1
    63   34   60 1
    64   34   61 1
@<TRIPOS>PROPERTY_DATA
  Total_Score	| 10.9167
  Crash		| -0.6915
  Polar		| 5.5404
  FragIndex	| 1
  FragRMSD	| 0.410

