@<TRIPOS>MOLECULE
BindingDB_50379641
 54 57 0 0 0
SMALL
NO_CHARGES


@<TRIPOS>ATOM
1    C        19.5602   -3.2635    8.9380  C     
2    C        20.7541   -3.0166    8.2409  C     
3    C        21.0284   -1.7298    7.6985  C     
4    C        20.0403   -0.7294    7.9187  C     
5    C        18.8340   -1.0218    8.5917  C     
6    N        18.6479   -2.2736    9.0774  N     
7    N        17.9058   -0.0401    8.6969  N     
8    C        16.6662   -0.1059    9.2197  C     
9    S        15.8052   -1.4091    9.9501  S     
10   C        14.3774   -0.5174   10.3201  C     
11   C        14.6440    0.7759    9.8407  C     
12   N        15.8544    0.9684    9.2666  N     
13   C        13.2312   -0.9862   11.0263  C     
14   C        12.0556   -0.2089   11.1456  C     
15   N        11.0049   -0.6520   11.8729  N     
16   C        10.9999   -1.8478   12.5045  C     
17   C        12.1230   -2.7105   12.4418  C     
18   C        13.2232   -2.2463   11.6730  C     
19   C        12.1302   -3.9394   13.1206  C     
20   O        11.1446   -4.2788   13.7660  O     
21   N        22.1602   -1.4626    6.9631  N     
22   C        22.8314   -0.1701    6.9774  C     
23   C        24.3469   -0.3650    7.2582  C     
24   O        24.9321   -1.3412    6.3729  O     
25   C        24.2594   -2.6147    6.4150  C     
26   C        22.7660   -2.4338    6.0627  C     
27   N        13.2001   -4.7289   13.1195  N     
28   C        13.4053   -5.9432   13.8471  C     
29   C        14.4560   -5.7182   14.9644  C     
30   N        14.1270   -4.5374   15.7761  N     
31   H        19.3667   -4.1844    9.3348  H     
32   H        21.4302   -3.7798    8.1771  H     
33   H        20.1455    0.1984    7.5092  H     
34   H        18.1738    0.8336    8.3623  H     
35   H        13.9961    1.5556    9.9415  H     
36   H        11.9716    0.7003   10.6886  H     
37   H        10.1633   -2.0926   13.0363  H     
38   H        14.0561   -2.8307   11.6003  H     
39   H        22.7065    0.3157    6.0051  H     
40   H        22.4613    0.5144    7.7435  H     
41   H        24.8734    0.5815    7.1204  H     
42   H        24.4997   -0.6789    8.2985  H     
43   H        24.7351   -3.2804    5.6890  H     
44   H        24.3673   -3.0689    7.4073  H     
45   H        22.2795   -3.4070    6.0390  H     
46   H        22.7014   -2.0457    5.0399  H     
47   H        13.9705   -4.4201   12.6191  H     
48   H        12.4826   -6.3283   14.2901  H     
49   H        13.7744   -6.7001   13.1504  H     
50   H        14.4928   -6.5960   15.6157  H     
51   H        15.4508   -5.5772   14.5301  H     
52   H        14.1548   -3.6982   15.1932  H     
53   H        14.7708   -4.4188   16.5622  H     
54   H        13.1821   -4.6469   16.1530  H     
@<TRIPOS>BOND
     1    1    2 2
     2    1    6 1
     3    2    3 1
     4    3    4 2
     5    3   21 1
     6    4    5 1
     7    5    6 2
     8    5    7 1
     9    7    8 1
    10    8    9 1
    11    8   12 2
    12    9   10 1
    13   10   11 2
    14   10   13 1
    15   11   12 1
    16   13   14 2
    17   13   18 1
    18   14   15 1
    19   15   16 2
    20   16   17 1
    21   17   18 2
    22   17   19 1
    23   19   20 2
    24   19   27 am
    25   21   22 1
    26   21   26 1
    27   22   23 1
    28   23   24 1
    29   24   25 1
    30   25   26 1
    31   27   28 1
    32   28   29 1
    33   29   30 1
    34    1   31 1
    35    2   32 1
    36    4   33 1
    37    7   34 1
    38   11   35 1
    39   14   36 1
    40   16   37 1
    41   18   38 1
    42   22   39 1
    43   22   40 1
    44   23   41 1
    45   23   42 1
    46   25   43 1
    47   25   44 1
    48   26   45 1
    49   26   46 1
    50   27   47 1
    51   28   48 1
    52   28   49 1
    53   29   50 1
    54   29   51 1
    55   30   52 1
    56   30   53 1
    57   30   54 1
@<TRIPOS>PROPERTY_DATA
  Total_Score	| 11.3537
  Crash		| -0.7047
  Polar		| 5.4988
  FragIndex	| 1
  FragRMSD	| 0.557

