@<TRIPOS>MOLECULE
BindingDB_50379770
 52 55 0 0 0
SMALL
NO_CHARGES


@<TRIPOS>ATOM
1    O        24.1413   -0.9677    5.0696  O     
2    C        21.0443   -1.7809    7.8837  C     
3    C        20.7582   -3.0440    8.5006  C     
4    C        19.5563   -3.2488    9.1983  C     
5    N        18.6465   -2.2520    9.2906  N     
6    C        18.8564   -1.0226    8.7475  C     
7    C        20.0764   -0.7597    8.0782  C     
8    N        17.9386   -0.0111    8.8198  N     
9    C        16.6818   -0.0648    9.2953  C     
10   S        15.7980   -1.3615    9.9916  S     
11   C        14.3609   -0.4736   10.3117  C     
12   C        14.6252    0.8152    9.8175  C     
13   N        15.8611    1.0109    9.2943  N     
14   C        13.1950   -0.9499   10.9804  C     
15   C        11.9792   -0.2370   10.9737  C     
16   N        10.9138   -0.6611   11.6907  N     
17   C        10.9349   -1.7957   12.4275  C     
18   C        12.1145   -2.5966   12.5176  C     
19   C        13.2379   -2.1210   11.7739  C     
20   N        22.2022   -1.5797    7.1532  N     
21   C        22.7746   -0.2422    6.9820  C     
22   C        24.1593   -0.2023    6.2894  C     
23   C        23.5826   -2.2965    5.1757  C     
24   C        22.9547   -2.6833    6.5400  C     
25   C        12.1298   -3.7773   13.2797  C     
26   C        13.3086   -4.6081   13.5206  C     
27   C        14.2829   -3.9696   14.5529  C     
28   N        14.2693   -4.7237   15.8101  N     
29   O        11.0816   -4.1544   13.7880  O     
30   H        21.4497   -3.8021    8.4899  H     
31   H        19.3526   -4.1631    9.6194  H     
32   H        20.2129    0.1599    7.6494  H     
33   H        18.2295    0.8652    8.5159  H     
34   H        13.9669    1.5894    9.8896  H     
35   H        11.8823    0.6158   10.4191  H     
36   H        10.0834   -2.0366   12.9486  H     
37   H        14.1084   -2.6385   11.8017  H     
38   H        22.0860    0.3555    6.3677  H     
39   H        22.8812    0.2384    7.9633  H     
40   H        24.9285   -0.6117    6.9658  H     
41   H        24.4318    0.8237    6.0466  H     
42   H        22.7972   -2.3579    4.4064  H     
43   H        24.3562   -3.0242    4.9129  H     
44   H        23.7607   -2.9821    7.2349  H     
45   H        22.3265   -3.5618    6.3371  H     
46   H        13.0195   -5.6122   13.8623  H     
47   H        13.8294   -4.7727   12.5751  H     
48   H        15.3132   -4.0002   14.1758  H     
49   H        14.0437   -2.9257   14.7857  H     
50   H        13.3176   -4.9730   16.0612  H     
51   H        14.6626   -4.1752   16.5709  H     
52   H        14.8148   -5.5934   15.7218  H     
@<TRIPOS>BOND
     1    1   22 1
     2    1   23 1
     3    2    3 2
     4    2    7 1
     5    2   20 1
     6    3    4 1
     7    4    5 2
     8    5    6 1
     9    6    7 2
    10    6    8 1
    11    8    9 1
    12    9   10 1
    13    9   13 2
    14   10   11 1
    15   11   12 2
    16   11   14 1
    17   12   13 1
    18   14   15 2
    19   14   19 1
    20   15   16 1
    21   16   17 2
    22   17   18 1
    23   18   19 2
    24   18   25 1
    25   20   21 1
    26   20   24 1
    27   21   22 1
    28   23   24 1
    29   25   26 1
    30   25   29 2
    31   26   27 1
    32   27   28 1
    33    3   30 1
    34    4   31 1
    35    7   32 1
    36    8   33 1
    37   12   34 1
    38   15   35 1
    39   17   36 1
    40   19   37 1
    41   21   38 1
    42   21   39 1
    43   22   40 1
    44   22   41 1
    45   23   42 1
    46   23   43 1
    47   24   44 1
    48   24   45 1
    49   26   46 1
    50   26   47 1
    51   27   48 1
    52   27   49 1
    53   28   50 1
    54   28   51 1
    55   28   52 1
@<TRIPOS>PROPERTY_DATA
  Total_Score	| 11.3753
  Crash		| -0.7052
  Polar		| 6.1080
  FragIndex	| 1
  FragRMSD	| 0.430

