@<TRIPOS>MOLECULE
BindingDB_50379638
 45 48 0 0 0
SMALL
NO_CHARGES


@<TRIPOS>ATOM
1    C        19.5604   -3.3198    8.9933  C     
2    C        20.7929   -3.0691    8.3576  C     
3    C        21.1087   -1.7807    7.8458  C     
4    C        20.1215   -0.7794    8.0444  C     
5    C        18.8802   -1.0687    8.6565  C     
6    N        18.6427   -2.3298    9.0960  N     
7    N        17.9345   -0.0986    8.7031  N     
8    C        16.6846   -0.1735    9.2050  C     
9    S        15.8421   -1.4207   10.0380  S     
10   C        14.3846   -0.5405   10.2837  C     
11   C        14.6268    0.7034    9.6720  C     
12   N        15.8518    0.8828    9.1231  N     
13   C        13.2355   -0.9572   11.0178  C     
14   C        12.1220   -0.0992   11.1978  C     
15   N        11.0796   -0.4658   11.9800  N     
16   C        11.0248   -1.6555   12.6139  C     
17   C        12.0829   -2.5892   12.4982  C     
18   C        13.1810   -2.2108   11.6846  C     
19   C        12.0293   -3.8197   13.1612  C     
20   O        11.0238   -4.1771   13.7498  O     
21   N        22.2871   -1.5418    7.1640  N     
22   C        22.9035   -0.2246    7.1406  C     
23   C        24.3424   -0.2013    6.5550  C     
24   O        24.3657   -0.8588    5.2723  O     
25   C        23.8547   -2.2070    5.2707  C     
26   C        23.0169   -2.6255    6.5212  C     
27   N        13.0336   -4.6729   13.2173  N     
28   H        19.3532   -4.2418    9.4021  H     
29   H        21.4708   -3.8321    8.3582  H     
30   H        20.2472    0.1573    7.6545  H     
31   H        18.2053    0.7675    8.3537  H     
32   H        13.9441    1.4499    9.6251  H     
33   H        12.0775    0.8189   10.7509  H     
34   H        10.2125   -1.8443   13.1966  H     
35   H        13.9661   -2.8578   11.5675  H     
36   H        22.2970    0.4662    6.5299  H     
37   H        22.9556    0.1786    8.1552  H     
38   H        24.6567    0.8393    6.4266  H     
39   H        25.0567   -0.6964    7.2303  H     
40   H        23.2377   -2.2788    4.3629  H     
41   H        24.7020   -2.8973    5.1528  H     
42   H        23.7222   -3.0431    7.2558  H     
43   H        22.3595   -3.4321    6.1956  H     
44   H        12.9240   -5.5163   13.6899  H     
45   H        13.8882   -4.4688   12.8088  H     
@<TRIPOS>BOND
     1    1    2 2
     2    1    6 1
     3    2    3 1
     4    3    4 2
     5    3   21 1
     6    4    5 1
     7    5    6 2
     8    5    7 1
     9    7    8 1
    10    8    9 1
    11    8   12 2
    12    9   10 1
    13   10   11 2
    14   10   13 1
    15   11   12 1
    16   13   14 2
    17   13   18 1
    18   14   15 1
    19   15   16 2
    20   16   17 1
    21   17   18 2
    22   17   19 1
    23   19   20 2
    24   19   27 am
    25   21   22 1
    26   21   26 1
    27   22   23 1
    28   23   24 1
    29   24   25 1
    30   25   26 1
    31    1   28 1
    32    2   29 1
    33    4   30 1
    34    7   31 1
    35   11   32 1
    36   14   33 1
    37   16   34 1
    38   18   35 1
    39   22   36 1
    40   22   37 1
    41   23   38 1
    42   23   39 1
    43   25   40 1
    44   25   41 1
    45   26   42 1
    46   26   43 1
    47   27   44 1
    48   27   45 1
@<TRIPOS>PROPERTY_DATA
  Total_Score	| 8.5338
  Crash		| -0.5343
  Polar		| 2.9108
  FragIndex	| 1
  FragRMSD	| 0.444

