@<TRIPOS>MOLECULE
BindingDB_50379766
 57 60 0 0 0
SMALL
NO_CHARGES


@<TRIPOS>ATOM
1    O        24.4442   -1.2386    5.4942  O     
2    C        21.0876   -1.8137    7.9600  C     
3    C        20.7201   -3.0902    8.4794  C     
4    C        19.4668   -3.3137    9.0664  C     
5    N        18.5745   -2.3046    9.1439  N     
6    C        18.8309   -1.0578    8.6747  C     
7    C        20.0883   -0.8020    8.0890  C     
8    N        17.9238   -0.0476    8.7602  N     
9    C        16.6570   -0.0866    9.2271  C     
10   S        15.7076   -1.3724    9.8773  S     
11   C        14.3216   -0.4216   10.2510  C     
12   C        14.6662    0.8742    9.8300  C     
13   N        15.9009    1.0300    9.2958  N     
14   C        13.1472   -0.8331   10.9376  C     
15   C        11.9659   -0.0641   10.9206  C     
16   N        10.8982   -0.4234   11.6736  N     
17   C        10.8938   -1.5239   12.4658  C     
18   C        12.0246   -2.3774   12.5374  C     
19   C        13.1408   -2.0006   11.7404  C     
20   N        22.3191   -1.5774    7.3551  N     
21   C        22.6671   -0.2519    6.8678  C     
22   C        24.0608   -0.0641    6.2189  C     
23   C        24.5775   -2.3625    6.3747  C     
24   C        23.2469   -2.6775    7.1123  C     
25   C        12.0316   -3.5244   13.3555  C     
26   N        13.1074   -4.2916   13.4957  N     
27   C        13.2221   -5.5660   14.1383  C     
28   C        14.5469   -5.7124   14.9408  C     
29   N        14.3871   -5.6069   16.4181  N     
30   O        10.9936   -3.8631   13.9170  O     
31   C        15.1705   -6.6087   17.1709  C     
32   H        21.3543   -3.8893    8.4446  H     
33   H        19.2198   -4.2331    9.4335  H     
34   H        20.2449    0.1425    7.7317  H     
35   H        18.2452    0.8299    8.4910  H     
36   H        14.0566    1.6846    9.9615  H     
37   H        11.8880    0.7808   10.3560  H     
38   H        10.0434   -1.7194   12.9997  H     
39   H        13.9897   -2.5696   11.7656  H     
40   H        21.9356    0.0284    6.1068  H     
41   H        22.5979    0.4639    7.6927  H     
42   H        24.8072    0.1763    6.9823  H     
43   H        24.0336    0.7748    5.5187  H     
44   H        24.8814   -3.2295    5.7779  H     
45   H        25.3792   -2.1786    7.1014  H     
46   H        23.5202   -3.1363    8.0682  H     
47   H        22.7261   -3.4286    6.5092  H     
48   H        13.9028   -4.0180   13.0156  H     
49   H        12.3636   -5.8277   14.7819  H     
50   H        13.2331   -6.2945   13.3243  H     
51   H        14.9783   -6.6835   14.6672  H     
52   H        15.2786   -4.9511   14.6259  H     
53   H        14.6861   -4.6799   16.7355  H     
54   H        13.3998   -5.6985   16.6690  H     
55   H        14.9050   -7.6226   16.8658  H     
56   H        14.9686   -6.5080   18.2344  H     
57   H        16.2383   -6.4555   16.9990  H     
@<TRIPOS>BOND
     1    1   22 1
     2    1   23 1
     3    2    3 2
     4    2    7 1
     5    2   20 1
     6    3    4 1
     7    4    5 2
     8    5    6 1
     9    6    7 2
    10    6    8 1
    11    8    9 1
    12    9   10 1
    13    9   13 2
    14   10   11 1
    15   11   12 2
    16   11   14 1
    17   12   13 1
    18   14   15 2
    19   14   19 1
    20   15   16 1
    21   16   17 2
    22   17   18 1
    23   18   19 2
    24   18   25 1
    25   20   21 1
    26   20   24 1
    27   21   22 1
    28   23   24 1
    29   25   26 am
    30   25   30 2
    31   26   27 1
    32   27   28 1
    33   28   29 1
    34   29   31 1
    35    3   32 1
    36    4   33 1
    37    7   34 1
    38    8   35 1
    39   12   36 1
    40   15   37 1
    41   17   38 1
    42   19   39 1
    43   21   40 1
    44   21   41 1
    45   22   42 1
    46   22   43 1
    47   23   44 1
    48   23   45 1
    49   24   46 1
    50   24   47 1
    51   26   48 1
    52   27   49 1
    53   27   50 1
    54   28   51 1
    55   28   52 1
    56   29   53 1
    57   29   54 1
    58   31   55 1
    59   31   56 1
    60   31   57 1
@<TRIPOS>PROPERTY_DATA
  Total_Score	| 10.5957
  Crash		| -1.0111
  Polar		| 6.2264
  FragIndex	| 1
  FragRMSD	| 0.415

