@<TRIPOS>MOLECULE
BindingDB_50379767
 58 61 0 0 0
SMALL
NO_CHARGES


@<TRIPOS>ATOM
1    O        22.4603   -0.2052    3.7967  O     
2    N        22.8175   -1.3235    6.4293  N     
3    C        21.8367   -1.9240    5.4721  C     
4    C        22.2406   -1.6129    4.0080  C     
5    C        23.4323    0.3663    4.6913  C     
6    C        23.0288    0.1342    6.1687  C     
7    C        21.1854   -1.9310    8.3077  C     
8    C        20.7862   -3.2302    8.7094  C     
9    C        19.4619   -3.4523    9.1161  C     
10   N        18.5817   -2.4248    9.1222  N     
11   C        18.8992   -1.1556    8.7427  C     
12   C        20.2251   -0.8917    8.3326  C     
13   N        17.9958   -0.1358    8.7678  N     
14   C        16.7266   -0.1640    9.2300  C     
15   S        15.8155   -1.4259    9.9661  S     
16   C        14.3907   -0.5064   10.2617  C     
17   C        14.6935    0.7689    9.7526  C     
18   N        15.9284    0.9253    9.2144  N     
19   C        13.2167   -0.9460   10.9414  C     
20   C        12.0411   -0.1639   10.9795  C     
21   N        10.9623   -0.5763   11.6846  N     
22   C        10.9379   -1.7435   12.3717  C     
23   C        12.0576   -2.6104   12.3830  C     
24   C        13.1931   -2.1736   11.6512  C     
25   C        12.0437   -3.8136   13.1063  C     
26   N        13.0957   -4.6267   13.1470  N     
27   C        13.2480   -5.8347   13.8990  C     
28   C        14.3607   -5.6745   14.9598  C     
29   N        14.0918   -4.5287   15.8368  N     
30   O        11.0411   -4.1158   13.7439  O     
31   C        22.5895   -1.6759    7.8746  C     
32   H        23.7136   -1.7559    6.1904  H     
33   H        21.8031   -3.0121    5.6010  H     
34   H        20.8340   -1.5234    5.6557  H     
35   H        21.4293   -1.9221    3.3456  H     
36   H        23.1369   -2.1813    3.7339  H     
37   H        24.4201   -0.0631    4.4949  H     
38   H        23.4847    1.4370    4.4956  H     
39   H        22.1266    0.7096    6.3886  H     
40   H        23.8379    0.5107    6.8012  H     
41   H        21.4459   -4.0149    8.7089  H     
42   H        19.1621   -4.3787    9.4190  H     
43   H        20.4894    0.0600    8.0677  H     
44   H        18.3171    0.7311    8.4663  H     
45   H        14.0483    1.5558    9.8031  H     
46   H        11.9722    0.7282   10.4891  H     
47   H        10.0823   -1.9663   12.8815  H     
48   H        14.0288   -2.7546   11.6385  H     
49   H        13.8718   -4.3633   12.6370  H     
50   H        12.3261   -6.1361   14.3985  H     
51   H        13.5253   -6.6325   13.2069  H     
52   H        14.4131   -6.5784   15.5704  H     
53   H        15.3269   -5.5275   14.4748  H     
54   H        14.1516   -3.6600   15.2946  H     
55   H        14.7580   -4.4871   16.6095  H     
56   H        13.1537   -4.6217   16.2236  H     
57   H        23.1971   -2.5704    8.0547  H     
58   H        23.0041   -0.9111    8.5378  H     
@<TRIPOS>BOND
     1    1    4 1
     2    1    5 1
     3    2    3 1
     4    2    6 1
     5    2   31 1
     6    3    4 1
     7    5    6 1
     8    7    8 2
     9    7   12 1
    10    7   31 1
    11    8    9 1
    12    9   10 2
    13   10   11 1
    14   11   12 2
    15   11   13 1
    16   13   14 1
    17   14   15 1
    18   14   18 2
    19   15   16 1
    20   16   17 2
    21   16   19 1
    22   17   18 1
    23   19   20 2
    24   19   24 1
    25   20   21 1
    26   21   22 2
    27   22   23 1
    28   23   24 2
    29   23   25 1
    30   25   26 am
    31   25   30 2
    32   26   27 1
    33   27   28 1
    34   28   29 1
    35    2   32 1
    36    3   33 1
    37    3   34 1
    38    4   35 1
    39    4   36 1
    40    5   37 1
    41    5   38 1
    42    6   39 1
    43    6   40 1
    44    8   41 1
    45    9   42 1
    46   12   43 1
    47   13   44 1
    48   17   45 1
    49   20   46 1
    50   22   47 1
    51   24   48 1
    52   26   49 1
    53   27   50 1
    54   27   51 1
    55   28   52 1
    56   28   53 1
    57   29   54 1
    58   29   55 1
    59   29   56 1
    60   31   57 1
    61   31   58 1
@<TRIPOS>PROPERTY_DATA
  Total_Score	| 11.2326
  Crash		| -1.6488
  Polar		| 5.6511
  FragIndex	| 1
  FragRMSD	| 0.167

