@<TRIPOS>MOLECULE
BindingDB_50379640
 48 51 0 0 0
SMALL
NO_CHARGES


@<TRIPOS>ATOM
1    C        19.5530   -3.4418    9.0102  C     
2    C        20.7894   -3.2300    8.3860  C     
3    C        21.1279   -1.9323    7.8785  C     
4    C        20.1638   -0.9016    8.0911  C     
5    C        18.9126   -1.1849    8.6786  C     
6    N        18.6457   -2.4470    9.1339  N     
7    N        18.0349   -0.1598    8.7726  N     
8    C        16.7775   -0.1755    9.2424  C     
9    S        15.8644   -1.4300    9.9902  S     
10   C        14.4444   -0.5054   10.2828  C     
11   C        14.7571    0.7796    9.7702  C     
12   N        15.9881    0.9241    9.2171  N     
13   C        13.2695   -0.9130   10.9756  C     
14   C        12.1250   -0.0948   11.0603  C     
15   N        11.0510   -0.4777   11.7922  N     
16   C        11.0105   -1.6510   12.4684  C     
17   C        12.0919   -2.5673   12.4111  C     
18   C        13.2123   -2.1711   11.6388  C     
19   C        12.0303   -3.8016   13.0859  C     
20   O        11.0162   -4.0851   13.7199  O     
21   N        22.3051   -1.6968    7.2092  N     
22   C        22.5384   -2.2471    5.8638  C     
23   C        23.2363   -1.1904    4.9406  C     
24   O        24.1321   -0.2582    5.5997  O     
25   C        24.6144   -0.7165    6.8778  C     
26   C        23.3861   -0.9243    7.8120  C     
27   N        13.0135   -4.6973   13.0408  N     
28   C        12.9722   -6.0169   13.5953  C     
29   H        19.3294   -4.3814    9.3734  H     
30   H        21.4838   -3.9900    8.3286  H     
31   H        20.3006    0.0311    7.6777  H     
32   H        18.3519    0.6979    8.4415  H     
33   H        14.1025    1.5676    9.8023  H     
34   H        12.0737    0.8011   10.5797  H     
35   H        10.1643   -1.8535   13.0059  H     
36   H        14.0133   -2.7963   11.5715  H     
37   H        23.2009   -3.1218    5.9627  H     
38   H        21.6057   -2.5581    5.3662  H     
39   H        23.7951   -1.7229    4.1589  H     
40   H        22.4572   -0.5848    4.4527  H     
41   H        25.1905   -1.6541    6.7659  H     
42   H        25.2734    0.0470    7.2977  H     
43   H        23.0249    0.0820    8.0813  H     
44   H        23.7271   -1.4320    8.7247  H     
45   H        13.8235   -4.4594   12.5618  H     
46   H        12.8395   -5.9734   14.6805  H     
47   H        13.9110   -6.5302   13.3721  H     
48   H        12.1501   -6.5825   13.1459  H     
@<TRIPOS>BOND
     1    1    2 2
     2    1    6 1
     3    2    3 1
     4    3    4 2
     5    3   21 1
     6    4    5 1
     7    5    6 2
     8    5    7 1
     9    7    8 1
    10    8    9 1
    11    8   12 2
    12    9   10 1
    13   10   11 2
    14   10   13 1
    15   11   12 1
    16   13   14 2
    17   13   18 1
    18   14   15 1
    19   15   16 2
    20   16   17 1
    21   17   18 2
    22   17   19 1
    23   19   20 2
    24   19   27 am
    25   21   22 1
    26   21   26 1
    27   22   23 1
    28   23   24 1
    29   24   25 1
    30   25   26 1
    31   27   28 1
    32    1   29 1
    33    2   30 1
    34    4   31 1
    35    7   32 1
    36   11   33 1
    37   14   34 1
    38   16   35 1
    39   18   36 1
    40   22   37 1
    41   22   38 1
    42   23   39 1
    43   23   40 1
    44   25   41 1
    45   25   42 1
    46   26   43 1
    47   26   44 1
    48   27   45 1
    49   28   46 1
    50   28   47 1
    51   28   48 1
@<TRIPOS>PROPERTY_DATA
  Total_Score	| 9.3136
  Crash		| -0.6060
  Polar		| 3.1136
  FragIndex	| 1
  FragRMSD	| 0.734

