@<TRIPOS>MOLECULE
BindingDB_50379651
 53 56 0 0 0
SMALL
NO_CHARGES


@<TRIPOS>ATOM
1    C        19.5821   -3.3238    8.9893  C     
2    C        20.8173   -3.0786    8.3672  C     
3    C        21.1232   -1.8034    7.8146  C     
4    C        20.1229   -0.7999    7.9845  C     
5    C        18.8869   -1.0800    8.6077  C     
6    N        18.6687   -2.3328    9.0793  N     
7    N        17.9617   -0.0935    8.7090  N     
8    C        16.7140   -0.1584    9.2264  C     
9    S        15.8326   -1.4476    9.9560  S     
10   C        14.4225   -0.5359   10.3379  C     
11   C        14.7041    0.7496    9.8519  C     
12   N        15.9196    0.9290    9.2776  N     
13   C        13.2660   -0.9736   11.0469  C     
14   C        13.2302   -2.2176   11.7292  C     
15   C        12.1042   -2.6508   12.4820  C     
16   C        11.0055   -1.7600   12.5146  C     
17   N        11.0391   -0.5765   11.8562  N     
18   C        12.1081   -0.1695   11.1357  C     
19   C        12.0558   -3.8819   13.1544  C     
20   O        11.0298   -4.2129   13.7360  O     
21   N        22.3247   -1.5509    7.1668  N     
22   C        22.8107   -0.1842    7.0039  C     
23   C        24.2689   -0.0435    6.4957  C     
24   C        24.5099   -0.8852    5.2154  C     
25   C        23.7674   -2.2568    5.2359  C     
26   C        23.1600   -2.6186    6.6191  C     
27   F        24.1263   -0.1597    4.1065  F     
28   N        13.0941   -4.7078   13.1858  N     
29   C        13.1645   -6.0067   13.7734  C     
30   N        13.7628   -5.8764   15.1007  N     
31   H        19.3709   -4.2405    9.3845  H     
32   H        21.4994   -3.8378    8.3714  H     
33   H        20.2612    0.1420    7.6087  H     
34   H        18.2456    0.7786    8.3961  H     
35   H        14.0643    1.5362    9.9503  H     
36   H        14.0544   -2.8171   11.6876  H     
37   H        10.1560   -1.9863   13.0374  H     
38   H        12.0372    0.7292   10.6573  H     
39   H        22.1636    0.3421    6.2971  H     
40   H        22.7587    0.3321    7.9688  H     
41   H        24.5012    1.0081    6.3063  H     
42   H        24.9472   -0.3923    7.2800  H     
43   H        25.5858   -1.0571    5.1182  H     
44   H        22.9474   -2.2444    4.5078  H     
45   H        24.4590   -3.0481    4.9285  H     
46   H        23.9685   -2.8332    7.3236  H     
47   H        22.6073   -3.5468    6.4579  H     
48   H        13.9047   -4.4065   12.7569  H     
49   H        12.1920   -6.4926   13.8742  H     
50   H        13.7982   -6.6353   13.1524  H     
51   H        14.6561   -5.3819   15.0278  H     
52   H        13.9132   -6.8042   15.5009  H     
53   H        13.1147   -5.3530   15.7033  H     
@<TRIPOS>BOND
     1    1    2 2
     2    1    6 1
     3    2    3 1
     4    3    4 2
     5    3   21 1
     6    4    5 1
     7    5    6 2
     8    5    7 1
     9    7    8 1
    10    8    9 1
    11    8   12 2
    12    9   10 1
    13   10   11 2
    14   10   13 1
    15   11   12 1
    16   13   14 2
    17   13   18 1
    18   14   15 1
    19   15   16 2
    20   15   19 1
    21   16   17 1
    22   17   18 2
    23   19   20 2
    24   19   28 am
    25   21   22 1
    26   21   26 1
    27   22   23 1
    28   23   24 1
    29   24   25 1
    30   24   27 1
    31   25   26 1
    32   28   29 1
    33   29   30 1
    34    1   31 1
    35    2   32 1
    36    4   33 1
    37    7   34 1
    38   11   35 1
    39   14   36 1
    40   16   37 1
    41   18   38 1
    42   22   39 1
    43   22   40 1
    44   23   41 1
    45   23   42 1
    46   24   43 1
    47   25   44 1
    48   25   45 1
    49   26   46 1
    50   26   47 1
    51   28   48 1
    52   29   49 1
    53   29   50 1
    54   30   51 1
    55   30   52 1
    56   30   53 1
@<TRIPOS>PROPERTY_DATA
  Total_Score	| 10.0773
  Crash		| -0.6068
  Polar		| 4.1731
  FragIndex	| 1
  FragRMSD	| 0.401

