@<TRIPOS>MOLECULE
BindingDB_50379764
 57 60 0 0 0
SMALL
NO_CHARGES


@<TRIPOS>ATOM
1    C        21.1438   -1.8524    7.8079  C     
2    C        20.8098   -3.1506    8.2800  C     
3    C        19.5851   -3.4021    8.9111  C     
4    N        18.6884   -2.4033    9.0610  N     
5    C        18.9135   -1.1338    8.6384  C     
6    C        20.1612   -0.8382    8.0361  C     
7    N        18.0081   -0.1301    8.7531  N     
8    C        16.7444   -0.1720    9.2410  C     
9    S        15.8088   -1.4331    9.9426  S     
10   C        14.4038   -0.4924   10.2595  C     
11   C        14.7253    0.7871    9.7606  C     
12   N        15.9635    0.9269    9.2286  N     
13   C        13.2187   -0.9045   10.9570  C     
14   C        12.1387   -0.0109   11.1751  C     
15   N        11.0985   -0.3652   11.9676  N     
16   C        11.0196   -1.5616   12.5838  C     
17   C        12.0467   -2.5291   12.4323  C     
18   C        13.1091   -2.1817   11.5539  C     
19   N        22.3453   -1.5686    7.1809  N     
20   C        23.0738   -2.6004    6.4370  C     
21   C        23.9672   -2.0482    5.2933  C     
22   O        24.6343   -0.7944    5.5481  O     
23   C        24.4721   -0.2472    6.8640  C     
24   C        22.9853   -0.2656    7.2803  C     
25   C        11.9683   -3.7762   13.0754  C     
26   N        12.9950   -4.6457   13.0816  N     
27   C        13.0169   -5.9656   13.6328  C     
28   C        14.4145   -6.3979   14.1246  C     
29   O        10.9524   -4.1006   13.6669  O     
30   C        15.0272   -5.4988   15.2275  C     
31   N        14.4097   -5.7039   16.5428  N     
32   H        21.4713   -3.9241    8.1975  H     
33   H        19.3594   -4.3365    9.2535  H     
34   H        20.3186    0.1149    7.7108  H     
35   H        18.3030    0.7405    8.4539  H     
36   H        14.1035    1.5893    9.8163  H     
37   H        12.1247    0.9171   10.7444  H     
38   H        10.2228   -1.7163   13.2005  H     
39   H        13.8480   -2.8645   11.3746  H     
40   H        23.6972   -3.1456    7.1474  H     
41   H        22.3921   -3.3157    5.9635  H     
42   H        24.7242   -2.7956    5.0365  H     
43   H        23.3463   -1.8906    4.4053  H     
44   H        25.0651   -0.8251    7.5724  H     
45   H        24.8437    0.7756    6.8605  H     
46   H        22.4328    0.4413    6.6545  H     
47   H        22.9381    0.0855    8.3208  H     
48   H        13.7977   -4.3776   12.5917  H     
49   H        12.2855   -6.0858   14.4486  H     
50   H        12.7229   -6.6600   12.8266  H     
51   H        14.3424   -7.4238   14.5149  H     
52   H        15.1028   -6.4192   13.2762  H     
53   H        16.1001   -5.7042   15.3149  H     
54   H        14.9180   -4.4426   14.9361  H     
55   H        13.3960   -5.5666   16.4689  H     
56   H        14.8046   -5.0212   17.1967  H     
57   H        14.6069   -6.6562   16.8752  H     
@<TRIPOS>BOND
     1    1    2 2
     2    1    6 1
     3    1   19 1
     4    2    3 1
     5    3    4 2
     6    4    5 1
     7    5    6 2
     8    5    7 1
     9    7    8 1
    10    8    9 1
    11    8   12 2
    12    9   10 1
    13   10   11 2
    14   10   13 1
    15   11   12 1
    16   13   14 2
    17   13   18 1
    18   14   15 1
    19   15   16 2
    20   16   17 1
    21   17   18 2
    22   17   25 1
    23   19   20 1
    24   19   24 1
    25   20   21 1
    26   21   22 1
    27   22   23 1
    28   23   24 1
    29   25   26 am
    30   25   29 2
    31   26   27 1
    32   27   28 1
    33   28   30 1
    34   30   31 1
    35    2   32 1
    36    3   33 1
    37    6   34 1
    38    7   35 1
    39   11   36 1
    40   14   37 1
    41   16   38 1
    42   18   39 1
    43   20   40 1
    44   20   41 1
    45   21   42 1
    46   21   43 1
    47   23   44 1
    48   23   45 1
    49   24   46 1
    50   24   47 1
    51   26   48 1
    52   27   49 1
    53   27   50 1
    54   28   51 1
    55   28   52 1
    56   30   53 1
    57   30   54 1
    58   31   55 1
    59   31   56 1
    60   31   57 1
@<TRIPOS>PROPERTY_DATA
  Total_Score	| 11.7680
  Crash		| -0.6953
  Polar		| 6.0143
  FragIndex	| 1
  FragRMSD	| 0.540

