@<TRIPOS>MOLECULE
BindingDB_50379649
 52 55 0 0 0
SMALL
NO_CHARGES


@<TRIPOS>ATOM
1    C        21.2253   -1.7968    8.0160  C     
2    C        20.8432   -3.1019    8.4285  C     
3    C        19.5527   -3.3709    8.9078  C     
4    N        18.6468   -2.3764    8.9690  N     
5    C        18.9166   -1.1038    8.5779  C     
6    C        20.2003   -0.8049    8.0878  C     
7    N        17.9855   -0.1146    8.6434  N     
8    C        16.7399   -0.1586    9.1679  C     
9    S        15.8501   -1.4196    9.9352  S     
10   C        14.4483   -0.4916   10.3090  C     
11   C        14.7480    0.7784    9.7853  C     
12   N        15.9578    0.9342    9.1954  N     
13   C        13.2986   -0.9108   11.0426  C     
14   C        13.2340   -2.1777   11.6889  C     
15   C        12.1222   -2.5807   12.4851  C     
16   C        11.0593   -1.6562   12.5683  C     
17   N        11.1229   -0.4648   11.9390  N     
18   C        12.1779   -0.0684   11.1907  C     
19   C        12.0596   -3.8027   13.1783  C     
20   N        13.0877   -4.6461   13.2106  N     
21   O        11.0187   -4.1088   13.7746  O     
22   C        13.2845   -5.9105   13.8811  C     
23   C        12.0778   -6.6772   14.5098  C     
24   O        12.5157   -7.4492   15.6293  O     
25   N        22.5133   -1.5299    7.5759  N     
26   C        23.1289   -0.2116    7.6127  C     
27   C        23.7336    0.1477    6.2273  C     
28   O        24.2601   -0.9782    5.4895  O     
29   C        24.6315   -2.1108    6.2967  C     
30   C        23.3826   -2.5980    7.0831  C     
31   H        21.5048   -3.8769    8.4267  H     
32   H        19.2965   -4.3083    9.2186  H     
33   H        20.3595    0.1410    7.7447  H     
34   H        18.2771    0.7561    8.3325  H     
35   H        14.1310    1.5840    9.8633  H     
36   H        14.0196   -2.8180   11.5941  H     
37   H        10.2185   -1.8393   13.1194  H     
38   H        12.1448    0.8569   10.7577  H     
39   H        13.8841   -4.3516   12.7389  H     
40   H        13.7333   -6.5970   13.1445  H     
41   H        14.0360   -5.7185   14.6658  H     
42   H        11.3009   -5.9987   14.8757  H     
43   H        11.6384   -7.3547   13.7648  H     
44   H        12.3729   -6.8545   16.4054  H     
45   H        22.5000    0.6071    7.9529  H     
46   H        23.9470   -0.2623    8.3378  H     
47   H        22.9621    0.6074    5.6070  H     
48   H        24.5333    0.8797    6.3616  H     
49   H        25.0045   -2.9087    5.6500  H     
50   H        25.4359   -1.8338    6.9848  H     
51   H        23.7170   -3.2257    7.9138  H     
52   H        22.8122   -3.2228    6.3881  H     
@<TRIPOS>BOND
     1    1    2 2
     2    1    6 1
     3    1   25 1
     4    2    3 1
     5    3    4 2
     6    4    5 1
     7    5    6 2
     8    5    7 1
     9    7    8 1
    10    8    9 1
    11    8   12 2
    12    9   10 1
    13   10   11 2
    14   10   13 1
    15   11   12 1
    16   13   14 2
    17   13   18 1
    18   14   15 1
    19   15   16 2
    20   15   19 1
    21   16   17 1
    22   17   18 2
    23   19   20 am
    24   19   21 2
    25   20   22 1
    26   22   23 1
    27   23   24 1
    28   25   26 1
    29   25   30 1
    30   26   27 1
    31   27   28 1
    32   28   29 1
    33   29   30 1
    34    2   31 1
    35    3   32 1
    36    6   33 1
    37    7   34 1
    38   11   35 1
    39   14   36 1
    40   16   37 1
    41   18   38 1
    42   20   39 1
    43   22   40 1
    44   22   41 1
    45   23   42 1
    46   23   43 1
    47   24   44 1
    48   26   45 1
    49   26   46 1
    50   27   47 1
    51   27   48 1
    52   29   49 1
    53   29   50 1
    54   30   51 1
    55   30   52 1
@<TRIPOS>PROPERTY_DATA
  Total_Score	| 10.2624
  Crash		| -1.0410
  Polar		| 4.1468
  FragIndex	| 1
  FragRMSD	| 0.582

