@<TRIPOS>MOLECULE
BindingDB_50379624
 51 54 0 0 0
SMALL
NO_CHARGES


@<TRIPOS>ATOM
1    C        19.5780   -3.2846    9.1136  C     
2    C        20.7731   -3.0765    8.4054  C     
3    C        20.9975   -1.8179    7.8150  C     
4    C        20.0368   -0.7930    7.9475  C     
5    C        18.8425   -1.0565    8.6484  C     
6    N        18.6649   -2.2858    9.2033  N     
7    N        17.9258   -0.0665    8.7152  N     
8    C        16.6941   -0.1088    9.2590  C     
9    S        15.8297   -1.3842   10.0324  S     
10   C        14.4184   -0.4653   10.3892  C     
11   C        14.6937    0.8106    9.8711  C     
12   N        15.9017    0.9765    9.2788  N     
13   C        13.2543   -0.9128   11.0772  C     
14   C        13.2084   -2.1557   11.7597  C     
15   C        12.0506   -2.6059   12.4506  C     
16   C        10.9343   -1.7332   12.4293  C     
17   N        10.9874   -0.5462   11.7789  N     
18   C        12.0825   -0.1203   11.1180  C     
19   C        11.9858   -3.8386   13.1214  C     
20   O        10.9492   -4.1616   13.6971  O     
21   N        22.1033   -1.6254    7.0573  N     
22   C        22.0670   -2.0774    5.6889  C     
23   C        23.2963   -1.5938    4.8801  C     
24   O        24.4830   -1.8423    5.6490  O     
25   C        24.5506   -1.1613    6.9178  C     
26   C        23.1767   -0.8238    7.5850  C     
27   N        13.0138   -4.6759   13.1527  N     
28   C        13.0353   -5.9640   13.7798  C     
29   C        14.4723   -6.5355   13.8266  C     
30   F        14.4629   -7.7865   14.3953  F     
31   F        14.9926   -6.6467   12.5583  F     
32   F        15.3018   -5.7340   14.5701  F     
33   H        19.3957   -4.1865    9.5596  H     
34   H        21.4609   -3.8308    8.3281  H     
35   H        20.1874    0.1195    7.5067  H     
36   H        18.1933    0.7840    8.3327  H     
37   H        14.0547    1.5983    9.9404  H     
38   H        14.0454   -2.7403   11.7553  H     
39   H        10.0569   -1.9733   12.8940  H     
40   H        12.0325    0.7859   10.6531  H     
41   H        22.0545   -3.1712    5.6834  H     
42   H        21.1661   -1.7266    5.1772  H     
43   H        23.3621   -2.1442    3.9404  H     
44   H        23.2040   -0.5277    4.6488  H     
45   H        25.1205   -1.8110    7.5865  H     
46   H        25.1255   -0.2402    6.7951  H     
47   H        22.9435    0.2322    7.4129  H     
48   H        23.2791   -0.9653    8.6639  H     
49   H        13.8213   -4.4099   12.6886  H     
50   H        12.6476   -5.8814   14.8011  H     
51   H        12.4005   -6.6500   13.2106  H     
@<TRIPOS>BOND
     1    1    2 2
     2    1    6 1
     3    2    3 1
     4    3    4 2
     5    3   21 1
     6    4    5 1
     7    5    6 2
     8    5    7 1
     9    7    8 1
    10    8    9 1
    11    8   12 2
    12    9   10 1
    13   10   11 2
    14   10   13 1
    15   11   12 1
    16   13   14 2
    17   13   18 1
    18   14   15 1
    19   15   16 2
    20   15   19 1
    21   16   17 1
    22   17   18 2
    23   19   20 2
    24   19   27 am
    25   21   22 1
    26   21   26 1
    27   22   23 1
    28   23   24 1
    29   24   25 1
    30   25   26 1
    31   27   28 1
    32   28   29 1
    33   29   30 1
    34   29   31 1
    35   29   32 1
    36    1   33 1
    37    2   34 1
    38    4   35 1
    39    7   36 1
    40   11   37 1
    41   14   38 1
    42   16   39 1
    43   18   40 1
    44   22   41 1
    45   22   42 1
    46   23   43 1
    47   23   44 1
    48   25   45 1
    49   25   46 1
    50   26   47 1
    51   26   48 1
    52   27   49 1
    53   28   50 1
    54   28   51 1
@<TRIPOS>PROPERTY_DATA
  Total_Score	| 9.2328
  Crash		| -0.6620
  Polar		| 2.7948
  FragIndex	| 1
  FragRMSD	| 0.762

