@<TRIPOS>MOLECULE
BindingDB_50305628
 45 47 0 0 0
SMALL
NO_CHARGES


@<TRIPOS>ATOM
1    N        74.6406   -7.5574   63.1460  N     
2    C        74.9541   -8.5068   64.0557  C     
3    N        74.2129   -8.7186   65.1460  N     
4    O        75.9338   -9.2265   63.8803  O     
5    C        74.2601   -9.8308   66.0519  C     
6    C        74.2707   -9.5189   67.5100  C     
7    C        74.7880   -8.2915   67.9901  C     
8    C        74.8595   -8.0197   69.3673  C     
9    C        74.4069   -8.9708   70.2974  C     
10   C        73.8898  -10.1942   69.8427  C     
11   C        73.8364  -10.4824   68.4649  C     
12   Cl       73.2460  -12.0152   68.0352  Cl    
13   Cl       74.5013   -8.6618   71.9574  Cl    
14   C        73.5356   -6.6411   63.4093  C     
15   C        73.1193   -5.6260   62.3084  C     
16   C        74.3146   -5.1691   61.4455  C     
17   C        74.9518   -6.4497   60.8396  C     
18   C        75.4424   -7.4398   61.9290  C     
19   O        75.1789   -4.3727   62.2876  O     
20   C        76.2782   -3.8161   61.6967  C     
21   C        77.5451   -4.3353   62.0313  C     
22   C        78.7098   -3.7923   61.4588  C     
23   C        78.6110   -2.6952   60.5782  C     
24   C        77.3491   -2.1534   60.2645  C     
25   C        76.1839   -2.7096   60.8269  C     
26   H        73.4674   -8.1163   65.2802  H     
27   H        73.3519  -10.3875   65.8265  H     
28   H        75.1096  -10.4892   65.8552  H     
29   H        75.1380   -7.5824   67.3416  H     
30   H        75.2498   -7.1294   69.6857  H     
31   H        73.5687  -10.8880   70.5237  H     
32   H        72.6363   -7.2237   63.6333  H     
33   H        73.7931   -6.0695   64.3051  H     
34   H        72.3707   -6.0911   61.6572  H     
35   H        72.6484   -4.7505   62.7730  H     
36   H        73.9251   -4.5458   60.6320  H     
37   H        74.2046   -6.9512   60.2128  H     
38   H        75.7828   -6.1784   60.1823  H     
39   H        76.4648   -7.1567   62.2041  H     
40   H        75.5009   -8.4232   61.4466  H     
41   H        77.6143   -5.1194   62.6862  H     
42   H        79.6252   -4.1889   61.6880  H     
43   H        79.4585   -2.2949   60.1678  H     
44   H        77.2779   -1.3544   59.6264  H     
45   H        75.2704   -2.3153   60.5950  H     
@<TRIPOS>BOND
     1    1    2 1
     2    1   14 1
     3    1   18 1
     4    2    3 am
     5    2    4 2
     6    3    5 1
     7    5    6 1
     8    6    7 2
     9    6   11 1
    10    7    8 1
    11    8    9 2
    12    9   10 1
    13    9   13 1
    14   10   11 2
    15   11   12 1
    16   14   15 1
    17   15   16 1
    18   16   17 1
    19   16   19 1
    20   17   18 1
    21   19   20 1
    22   20   21 2
    23   20   25 1
    24   21   22 1
    25   22   23 2
    26   23   24 1
    27   24   25 2
    28    3   26 1
    29    5   27 1
    30    5   28 1
    31    7   29 1
    32    8   30 1
    33   10   31 1
    34   14   32 1
    35   14   33 1
    36   15   34 1
    37   15   35 1
    38   16   36 1
    39   17   37 1
    40   17   38 1
    41   18   39 1
    42   18   40 1
    43   21   41 1
    44   22   42 1
    45   23   43 1
    46   24   44 1
    47   25   45 1
@<TRIPOS>PROPERTY_DATA
  Total_Score	| 9.9826
  Crash		| -0.9944
  Polar		| 3.2089
  FragIndex	| 1
  FragRMSD	| 0.611

