@<TRIPOS>MOLECULE
BindingDB_50305641
 52 54 0 0 0
SMALL
NO_CHARGES


@<TRIPOS>ATOM
1    N        74.7882   -7.4997   63.1937  N     
2    C        75.0014   -8.5080   64.0693  C     
3    N        74.1464   -8.8232   65.0409  N     
4    O        76.0383   -9.1637   64.0089  O     
5    C        74.1989   -9.9286   65.9447  C     
6    C        74.2240   -9.6371   67.4088  C     
7    C        73.8522  -10.7093   68.2651  C     
8    C        73.8525  -10.5586   69.6632  C     
9    C        74.2661   -9.3491   70.2384  C     
10   C        74.6627   -8.2860   69.4117  C     
11   C        74.6338   -8.4098   68.0078  C     
12   Cl       75.1509   -7.0259   67.1693  Cl    
13   Cl       74.3420   -9.1993   71.9225  Cl    
14   C        75.7922   -7.2155   62.1799  C     
15   C        75.3117   -6.4146   60.9375  C     
16   C        74.4350   -5.1872   61.3171  C     
17   C        73.2710   -5.7160   62.1814  C     
18   C        73.7522   -6.4997   63.4258  C     
19   O        75.1244   -4.1403   62.0462  O     
20   C        76.2925   -3.7390   61.4622  C     
21   C        77.5054   -4.3006   61.8937  C     
22   C        78.6990   -4.0455   61.2009  C     
23   C        78.7256   -3.1890   60.0611  C     
24   C        77.5091   -2.5386   59.7103  C     
25   C        76.3119   -2.8037   60.4018  C     
26   C        79.8975   -3.0603   59.2966  C     
27   O        80.9510   -3.5445   59.7062  O     
28   N        79.8752   -2.5252   58.0799  N     
29   C        80.9653   -2.4520   57.1635  C     
30   H        73.3751   -8.2520   65.1429  H     
31   H        73.2933  -10.4969   65.7258  H     
32   H        75.0554  -10.5811   65.7485  H     
33   H        73.5573  -11.6146   67.8746  H     
34   H        73.5845  -11.3443   70.2600  H     
35   H        74.9700   -7.4036   69.8331  H     
36   H        76.6152   -6.6955   62.6746  H     
37   H        76.2055   -8.1518   61.7801  H     
38   H        76.1796   -6.0933   60.3492  H     
39   H        74.7199   -7.0799   60.2966  H     
40   H        73.9903   -4.7689   60.3994  H     
41   H        72.6339   -4.8876   62.5007  H     
42   H        72.6559   -6.3772   61.5713  H     
43   H        72.8527   -6.9524   63.8341  H     
44   H        74.1310   -5.7921   64.1701  H     
45   H        77.4940   -4.9895   62.6480  H     
46   H        79.5418   -4.5405   61.5086  H     
47   H        77.4644   -1.8964   58.9146  H     
48   H        75.4383   -2.3667   60.0933  H     
49   H        79.0276   -2.1961   57.7583  H     
50   H        81.8013   -1.9123   57.6044  H     
51   H        80.6333   -1.9170   56.2646  H     
52   H        81.3026   -3.4606   56.8967  H     
@<TRIPOS>BOND
     1    1    2 1
     2    1   14 1
     3    1   18 1
     4    2    3 am
     5    2    4 2
     6    3    5 1
     7    5    6 1
     8    6    7 2
     9    6   11 1
    10    7    8 1
    11    8    9 2
    12    9   10 1
    13    9   13 1
    14   10   11 2
    15   11   12 1
    16   14   15 1
    17   15   16 1
    18   16   17 1
    19   16   19 1
    20   17   18 1
    21   19   20 1
    22   20   21 2
    23   20   25 1
    24   21   22 1
    25   22   23 2
    26   23   24 1
    27   23   26 1
    28   24   25 2
    29   26   27 2
    30   26   28 am
    31   28   29 1
    32    3   30 1
    33    5   31 1
    34    5   32 1
    35    7   33 1
    36    8   34 1
    37   10   35 1
    38   14   36 1
    39   14   37 1
    40   15   38 1
    41   15   39 1
    42   16   40 1
    43   17   41 1
    44   17   42 1
    45   18   43 1
    46   18   44 1
    47   21   45 1
    48   22   46 1
    49   24   47 1
    50   25   48 1
    51   28   49 1
    52   29   50 1
    53   29   51 1
    54   29   52 1
@<TRIPOS>PROPERTY_DATA
  Total_Score	| 8.3401
  Crash		| -2.1770
  Polar		| 3.2479
  FragIndex	| 1
  FragRMSD	| 0.554

