@<TRIPOS>MOLECULE
BindingDB_50319982
 44 46 0 0 0
SMALL
NO_CHARGES


@<TRIPOS>ATOM
1    C        75.2739   -6.5923   60.9423  C     
2    C        74.4331   -5.3506   61.3377  C     
3    C        73.1877   -5.8653   62.0921  C     
4    C        73.5472   -6.7333   63.3274  C     
5    N        74.6777   -7.6495   63.2107  N     
6    C        75.6852   -7.4414   62.1731  C     
7    O        75.1223   -4.3985   62.1825  O     
8    C        76.1462   -3.7036   61.5937  C     
9    C        77.4778   -4.0224   61.9285  C     
10   C        78.5278   -3.3121   61.3191  C     
11   N        78.2492   -2.3029   60.4543  N     
12   C        76.9790   -1.9423   60.1379  C     
13   C        75.8943   -2.6364   60.7051  C     
14   C        74.8714   -8.6090   64.1428  C     
15   N        74.0243   -8.8066   65.1542  N     
16   O        75.8571   -9.3389   64.0828  O     
17   C        73.9818   -9.9023   66.0822  C     
18   C        74.0769   -9.5738   67.5339  C     
19   C        74.5927   -8.3281   67.9717  C     
20   C        74.7486   -8.0477   69.3412  C     
21   C        74.3781   -9.0036   70.3042  C     
22   C        73.8579  -10.2421   69.8912  C     
23   C        73.7167  -10.5377   68.5202  C     
24   Cl       73.1221  -12.0834   68.1355  Cl    
25   Cl       74.5856   -8.6869   71.9533  Cl    
26   H        74.6855   -7.2185   60.2620  H     
27   H        76.1676   -6.2807   60.3960  H     
28   H        74.0831   -4.8532   60.4248  H     
29   H        72.5718   -5.0166   62.4051  H     
30   H        72.5851   -6.4685   61.4051  H     
31   H        73.7476   -6.0652   64.1699  H     
32   H        72.6359   -7.2939   63.5592  H     
33   H        76.0161   -8.4066   61.7719  H     
34   H        76.5557   -6.9703   62.6399  H     
35   H        77.6817   -4.7684   62.5981  H     
36   H        79.4992   -3.5499   61.5238  H     
37   H        76.8192   -1.1676   59.4910  H     
38   H        74.9361   -2.3634   60.4788  H     
39   H        73.2933   -8.1782   65.2346  H     
40   H        73.0127  -10.3679   65.8967  H     
41   H        74.7509  -10.6490   65.8725  H     
42   H        74.8854   -7.6175   67.2969  H     
43   H        75.1392   -7.1478   69.6314  H     
44   H        73.5954  -10.9376   70.5953  H     
@<TRIPOS>BOND
     1    1    2 1
     2    1    6 1
     3    2    3 1
     4    2    7 1
     5    3    4 1
     6    4    5 1
     7    5    6 1
     8    5   14 1
     9    7    8 1
    10    8    9 2
    11    8   13 1
    12    9   10 1
    13   10   11 2
    14   11   12 1
    15   12   13 2
    16   14   15 am
    17   14   16 2
    18   15   17 1
    19   17   18 1
    20   18   19 2
    21   18   23 1
    22   19   20 1
    23   20   21 2
    24   21   22 1
    25   21   25 1
    26   22   23 2
    27   23   24 1
    28    1   26 1
    29    1   27 1
    30    2   28 1
    31    3   29 1
    32    3   30 1
    33    4   31 1
    34    4   32 1
    35    6   33 1
    36    6   34 1
    37    9   35 1
    38   10   36 1
    39   12   37 1
    40   13   38 1
    41   15   39 1
    42   17   40 1
    43   17   41 1
    44   19   42 1
    45   20   43 1
    46   22   44 1
@<TRIPOS>PROPERTY_DATA
  Total_Score	| 9.6326
  Crash		| -1.0798
  Polar		| 3.1322
  FragIndex	| 1
  FragRMSD	| 0.552

