@<TRIPOS>MOLECULE
BindingDB_50305643
 47 49 0 0 0
SMALL
NO_CHARGES


@<TRIPOS>ATOM
1    N        74.4595   -7.9257   63.0059  N     
2    C        74.6727   -8.7980   64.0114  C     
3    N        73.8724   -8.8751   65.0746  N     
4    O        75.6583   -9.5263   63.9934  O     
5    C        73.8319   -9.8862   66.0911  C     
6    C        74.0502   -9.4713   67.5059  C     
7    C        74.6940   -8.2471   67.8372  C     
8    C        74.9602   -7.9033   69.1717  C     
9    C        74.5757   -8.7652   70.2179  C     
10   C        73.9221   -9.9753   69.9128  C     
11   C        73.6768  -10.3375   68.5737  C     
12   Cl       72.9396  -11.8523   68.3274  Cl    
13   Cl       74.9183   -8.3830   71.8284  Cl    
14   C        73.3068   -7.0327   62.9301  C     
15   C        73.7894   -5.5651   63.0261  C     
16   C        74.8512   -5.2280   61.9459  C     
17   C        75.9684   -6.3218   61.9259  C     
18   C        75.3907   -7.7665   61.9013  C     
19   O        75.3346   -3.9011   62.2644  O     
20   C        76.4440   -3.5116   61.5756  C     
21   C        77.7131   -3.9467   61.9863  C     
22   C        78.8603   -3.6246   61.2289  C     
23   C        78.7507   -2.8212   60.0677  C     
24   C        77.4724   -2.3328   59.7010  C     
25   C        76.3333   -2.6608   60.4554  C     
26   C        79.9048   -2.5222   59.3017  C     
27   O        79.8298   -1.9032   58.0986  O     
28   O        81.1502   -2.8638   59.7147  O     
29   H        73.1812   -8.2075   65.1495  H     
30   H        72.8246  -10.2951   66.0158  H     
31   H        74.5310  -10.6965   65.8864  H     
32   H        74.9949   -7.6028   67.0990  H     
33   H        75.4370   -7.0218   69.3840  H     
34   H        73.6423  -10.5963   70.6760  H     
35   H        72.7892   -7.1861   61.9776  H     
36   H        72.5537   -7.2061   63.6977  H     
37   H        72.9312   -4.8917   62.9306  H     
38   H        74.2259   -5.4223   64.0182  H     
39   H        74.3526   -5.2103   60.9693  H     
40   H        76.6035   -6.1822   61.0495  H     
41   H        76.5872   -6.2174   62.8216  H     
42   H        76.2353   -8.4624   61.9294  H     
43   H        74.8693   -7.9351   60.9503  H     
44   H        77.8109   -4.5351   62.8113  H     
45   H        79.7628   -4.0021   61.5255  H     
46   H        77.3534   -1.7429   58.8713  H     
47   H        75.4187   -2.3180   60.1777  H     
@<TRIPOS>BOND
     1    1    2 1
     2    1   14 1
     3    1   18 1
     4    2    3 am
     5    2    4 2
     6    3    5 1
     7    5    6 1
     8    6    7 2
     9    6   11 1
    10    7    8 1
    11    8    9 2
    12    9   10 1
    13    9   13 1
    14   10   11 2
    15   11   12 1
    16   14   15 1
    17   15   16 1
    18   16   17 1
    19   16   19 1
    20   17   18 1
    21   19   20 1
    22   20   21 2
    23   20   25 1
    24   21   22 1
    25   22   23 2
    26   23   24 1
    27   23   26 1
    28   24   25 2
    29   26   27 2
    30   26   28 1
    31    3   29 1
    32    5   30 1
    33    5   31 1
    34    7   32 1
    35    8   33 1
    36   10   34 1
    37   14   35 1
    38   14   36 1
    39   15   37 1
    40   15   38 1
    41   16   39 1
    42   17   40 1
    43   17   41 1
    44   18   42 1
    45   18   43 1
    46   21   44 1
    47   22   45 1
    48   24   46 1
    49   25   47 1
@<TRIPOS>PROPERTY_DATA
  Total_Score	| 8.4028
  Crash		| -1.8033
  Polar		| 2.8196
  FragIndex	| 1
  FragRMSD	| 0.745

