@<TRIPOS>MOLECULE
BindingDB_50305626
 48 50 0 0 0
SMALL
NO_CHARGES


@<TRIPOS>ATOM
1    N        74.9187   -7.5157   63.4128  N     
2    C        74.9654   -8.5569   64.2650  C     
3    N        74.0378   -8.7703   65.1954  N     
4    O        75.8621   -9.3811   64.1449  O     
5    C        73.9112   -9.9050   66.0693  C     
6    C        74.0019   -9.6422   67.5341  C     
7    C        74.5071   -8.4183   68.0419  C     
8    C        74.5852   -8.1844   69.4257  C     
9    C        74.1660   -9.1726   70.3326  C     
10   C        73.6679  -10.3954   69.8500  C     
11   C        73.5807  -10.6359   68.4649  C     
12   Cl       72.9613  -12.1463   67.9915  Cl    
13   Cl       74.2710   -8.9003   71.9981  Cl    
14   C        75.6805   -7.5697   62.1700  C     
15   C        75.0816   -6.7170   61.0142  C     
16   C        74.6965   -5.2681   61.4379  C     
17   C        73.7310   -5.4100   62.6523  C     
18   C        74.3381   -6.2449   63.8161  C     
19   C        75.8800   -4.2796   61.7392  C     
20   C        76.4880   -3.6628   60.5287  C     
21   C        76.2066   -2.3358   60.1323  C     
22   C        76.7274   -1.8260   58.9275  C     
23   C        77.5506   -2.6306   58.1153  C     
24   C        77.8489   -3.9498   58.5048  C     
25   C        77.3325   -4.4502   59.7123  C     
26   O        73.9532   -4.7149   60.3428  O     
27   H        73.2838   -8.1651   65.2034  H     
28   H        72.9209  -10.3200   65.8696  H     
29   H        74.6505  -10.6730   65.8359  H     
30   H        74.8243   -7.6782   67.4118  H     
31   H        74.9503   -7.2915   69.7682  H     
32   H        73.3736  -11.1164   70.5140  H     
33   H        76.7554   -7.4832   62.3941  H     
34   H        75.6058   -8.5927   61.7811  H     
35   H        75.7518   -6.7187   60.1560  H     
36   H        74.1665   -7.2155   60.6629  H     
37   H        73.4415   -4.4200   63.0136  H     
38   H        72.8133   -5.9111   62.3293  H     
39   H        73.5503   -6.3608   64.5622  H     
40   H        75.1351   -5.6794   64.3053  H     
41   H        75.5104   -3.4924   62.4028  H     
42   H        76.6705   -4.7872   62.2968  H     
43   H        75.5989   -1.7436   60.7041  H     
44   H        76.5048   -0.8699   58.6388  H     
45   H        77.9123   -2.2663   57.2311  H     
46   H        78.4477   -4.5408   57.9196  H     
47   H        77.4846   -5.4164   59.9754  H     
48   H        73.5042   -3.9200   60.7023  H     
@<TRIPOS>BOND
     1    1    2 1
     2    1   14 1
     3    1   18 1
     4    2    3 am
     5    2    4 2
     6    3    5 1
     7    5    6 1
     8    6    7 2
     9    6   11 1
    10    7    8 1
    11    8    9 2
    12    9   10 1
    13    9   13 1
    14   10   11 2
    15   11   12 1
    16   14   15 1
    17   15   16 1
    18   16   17 1
    19   16   19 1
    20   16   26 1
    21   17   18 1
    22   19   20 1
    23   20   21 2
    24   20   25 1
    25   21   22 1
    26   22   23 2
    27   23   24 1
    28   24   25 2
    29    3   27 1
    30    5   28 1
    31    5   29 1
    32    7   30 1
    33    8   31 1
    34   10   32 1
    35   14   33 1
    36   14   34 1
    37   15   35 1
    38   15   36 1
    39   17   37 1
    40   17   38 1
    41   18   39 1
    42   18   40 1
    43   19   41 1
    44   19   42 1
    45   21   43 1
    46   22   44 1
    47   23   45 1
    48   24   46 1
    49   25   47 1
    50   26   48 1
@<TRIPOS>PROPERTY_DATA
  Total_Score	| 8.0586
  Crash		| -2.0892
  Polar		| 3.1534
  FragIndex	| 1
  FragRMSD	| 0.332

