@<TRIPOS>MOLECULE
BindingDB_50305623
 45 47 0 0 0
SMALL
NO_CHARGES


@<TRIPOS>ATOM
1    N        74.4818   -7.8709   62.9224  N     
2    C        74.7106   -8.7649   63.9123  C     
3    N        73.9082   -8.9099   64.9687  N     
4    O        75.7302   -9.4476   63.8841  O     
5    C        74.0491   -9.8131   66.0781  C     
6    C        74.3994   -9.1819   67.3816  C     
7    C        74.7000   -7.8000   67.4853  C     
8    C        75.1784   -7.2554   68.6919  C     
9    C        75.3574   -8.0719   69.8236  C     
10   C        75.0011   -9.4279   69.7548  C     
11   C        74.5186   -9.9820   68.5507  C     
12   Cl       74.1315  -11.6423   68.5763  Cl    
13   Cl       76.0472   -7.4525   71.2322  Cl    
14   C        73.3816   -6.9180   62.9455  C     
15   C        73.9601   -5.4865   62.7713  C     
16   C        74.6778   -5.2900   61.3855  C     
17   C        75.1130   -6.6590   60.7482  C     
18   C        75.3870   -7.8060   61.7743  C     
19   C        75.8336   -4.3162   61.5104  C     
20   C        76.9901   -4.6559   62.2632  C     
21   C        78.0667   -3.7530   62.3988  C     
22   C        78.0259   -2.4932   61.7793  C     
23   C        76.9112   -2.1440   61.0041  C     
24   C        75.8278   -3.0398   60.8844  C     
25   O        73.6805   -4.7782   60.4762  O     
26   H        73.1211   -8.3459   65.0043  H     
27   H        73.0842  -10.3158   66.1882  H     
28   H        74.7962  -10.5909   65.8733  H     
29   H        74.6076   -7.1757   66.6789  H     
30   H        75.4177   -6.2536   68.7397  H     
31   H        75.1195  -10.0248   70.5763  H     
32   H        72.6924   -7.1357   62.1200  H     
33   H        72.7874   -6.9331   63.8570  H     
34   H        73.1594   -4.7422   62.8934  H     
35   H        74.6588   -5.3441   63.5962  H     
36   H        74.3080   -7.0302   60.1096  H     
37   H        75.9779   -6.5272   60.0964  H     
38   H        76.4181   -7.6876   62.1206  H     
39   H        75.3179   -8.7605   61.2328  H     
40   H        77.0483   -5.5626   62.7367  H     
41   H        78.8934   -4.0178   62.9457  H     
42   H        78.7976   -1.8294   61.8892  H     
43   H        76.8792   -1.2366   60.5268  H     
44   H        75.0267   -2.7293   60.3259  H     
45   H        73.3259   -3.9592   60.8879  H     
@<TRIPOS>BOND
     1    1    2 1
     2    1   14 1
     3    1   18 1
     4    2    3 am
     5    2    4 2
     6    3    5 1
     7    5    6 1
     8    6    7 2
     9    6   11 1
    10    7    8 1
    11    8    9 2
    12    9   10 1
    13    9   13 1
    14   10   11 2
    15   11   12 1
    16   14   15 1
    17   15   16 1
    18   16   17 1
    19   16   19 1
    20   16   25 1
    21   17   18 1
    22   19   20 2
    23   19   24 1
    24   20   21 1
    25   21   22 2
    26   22   23 1
    27   23   24 2
    28    3   26 1
    29    5   27 1
    30    5   28 1
    31    7   29 1
    32    8   30 1
    33   10   31 1
    34   14   32 1
    35   14   33 1
    36   15   34 1
    37   15   35 1
    38   17   36 1
    39   17   37 1
    40   18   38 1
    41   18   39 1
    42   20   40 1
    43   21   41 1
    44   22   42 1
    45   23   43 1
    46   24   44 1
    47   25   45 1
@<TRIPOS>PROPERTY_DATA
  Total_Score	| 8.6242
  Crash		| -2.2523
  Polar		| 2.9313
  FragIndex	| 1
  FragRMSD	| 0.861

