@<TRIPOS>MOLECULE
BindingDB_50319984
 47 49 0 0 0
SMALL
NO_CHARGES


@<TRIPOS>ATOM
1    C        74.3141   -6.8648   60.7246  C     
2    C        73.9235   -5.3524   61.1148  C     
3    C        73.7457   -5.2519   62.6534  C     
4    C        73.2609   -6.6241   63.2236  C     
5    N        74.4769   -7.5598   63.0369  N     
6    C        75.3835   -7.3517   61.8149  C     
7    O        75.0584   -4.6201   60.5387  O     
8    C        75.8232   -3.5427   60.9554  C     
9    N        76.0437   -2.4603   60.1369  N     
10   C        77.0550   -1.5521   60.3407  C     
11   C        77.9761   -1.7451   61.4037  C     
12   C        77.7784   -2.8777   62.2070  C     
13   N        76.7376   -3.7302   61.9617  N     
14   C        75.0092   -8.2469   64.0841  C     
15   N        74.6304   -8.1385   65.3399  N     
16   O        76.0248   -8.9180   63.8415  O     
17   C        75.0690   -8.9112   66.4440  C     
18   C        74.7841   -8.6802   67.9386  C     
19   C        75.2335   -7.5335   68.6683  C     
20   C        75.3684   -7.5940   70.1369  C     
21   C        74.5825   -8.5448   70.8297  C     
22   C        73.8748   -9.5347   70.1130  C     
23   C        74.2345   -9.7538   68.7483  C     
24   O        74.0437  -11.0839   68.3570  O     
25   C        72.7992  -11.4512   67.8465  C     
26   F        72.6719  -12.8356   67.7872  F     
27   F        71.8065  -10.9124   68.6211  F     
28   F        72.9431  -10.9438   66.5735  F     
29   H        73.4370   -7.5445   60.7440  H     
30   H        74.7098   -6.9681   59.7254  H     
31   H        73.0082   -5.0265   60.5903  H     
32   H        74.7192   -5.1285   63.1323  H     
33   H        73.1463   -4.3898   62.9820  H     
34   H        72.8472   -6.4334   64.2309  H     
35   H        72.3548   -6.9818   62.6575  H     
36   H        76.0009   -8.2969   61.4543  H     
37   H        76.2190   -6.5678   62.0428  H     
38   H        77.2088   -0.7774   59.6870  H     
39   H        78.7527   -1.0863   61.5895  H     
40   H        78.4691   -3.0889   62.9509  H     
41   H        73.8828   -7.5723   65.5199  H     
42   H        74.9039  -10.0624   66.1795  H     
43   H        76.1800   -8.8557   66.4329  H     
44   H        75.4128   -6.5729   68.2323  H     
45   H        75.9825   -6.9752   70.6928  H     
46   H        74.5112   -8.5780   71.8796  H     
47   H        73.0723  -10.0669   70.4837  H     
@<TRIPOS>BOND
     1    1    2 1
     2    1    6 1
     3    2    3 1
     4    2    7 1
     5    3    4 1
     6    4    5 1
     7    5    6 1
     8    5   14 1
     9    7    8 1
    10    8    9 2
    11    8   13 1
    12    9   10 1
    13   10   11 2
    14   11   12 1
    15   12   13 2
    16   14   15 am
    17   14   16 2
    18   15   17 1
    19   17   18 1
    20   18   19 2
    21   18   23 1
    22   19   20 1
    23   20   21 2
    24   21   22 1
    25   22   23 2
    26   23   24 1
    27   24   25 1
    28   25   26 1
    29   25   27 1
    30   25   28 1
    31    1   29 1
    32    1   30 1
    33    2   31 1
    34    3   32 1
    35    3   33 1
    36    4   34 1
    37    4   35 1
    38    6   36 1
    39    6   37 1
    40   10   38 1
    41   11   39 1
    42   12   40 1
    43   15   41 1
    44   17   42 1
    45   17   43 1
    46   19   44 1
    47   20   45 1
    48   21   46 1
    49   22   47 1
@<TRIPOS>PROPERTY_DATA
  Total_Score	| 9.6378
  Crash		| -2.7070
  Polar		| 3.2585
  FragIndex	| 1
  FragRMSD	| 0.795

