@<TRIPOS>MOLECULE
BindingDB_50305629
 43 45 0 0 0
SMALL
NO_CHARGES


@<TRIPOS>ATOM
1    N        74.5458   -7.5594   63.0617  N     
2    C        74.9129   -8.4103   64.0444  C     
3    N        74.0973   -8.7640   65.0308  N     
4    O        76.0406   -8.9012   64.0370  O     
5    C        74.2520   -9.8335   65.9691  C     
6    C        74.2789   -9.4963   67.4246  C     
7    C        74.8045   -8.2590   67.8837  C     
8    C        74.8918   -7.9686   69.2573  C     
9    C        74.4348   -8.9138   70.2033  C     
10   C        73.9069  -10.1439   69.7750  C     
11   C        73.8411  -10.4463   68.3983  C     
12   Cl       73.2144  -11.9751   67.9965  Cl    
13   Cl       74.5149   -8.5984   71.8710  Cl    
14   C        75.4893   -7.2431   61.9903  C     
15   C        74.9382   -6.4093   60.7889  C     
16   C        73.9469   -5.2610   61.1818  C     
17   C        73.3047   -5.4645   62.5869  C     
18   C        73.2169   -6.9609   62.9768  C     
19   O        74.3568   -3.8687   61.0906  O     
20   C        75.6663   -3.4842   61.1342  C     
21   N        76.0276   -2.5246   60.2599  N     
22   C        77.2821   -2.0119   60.2487  C     
23   C        78.2287   -2.4617   61.1940  C     
24   C        77.8401   -3.4547   62.0952  C     
25   N        76.5649   -3.9266   62.0618  N     
26   H        73.2352   -8.3305   65.0651  H     
27   H        73.3836  -10.4587   65.7780  H     
28   H        75.1385  -10.4336   65.7732  H     
29   H        75.1569   -7.5717   67.2141  H     
30   H        75.2751   -7.0708   69.5771  H     
31   H        73.5764  -10.8283   70.4672  H     
32   H        76.3379   -6.7111   62.4232  H     
33   H        75.8701   -8.1817   61.5756  H     
34   H        75.7844   -6.0271   60.2130  H     
35   H        74.4043   -7.1058   60.1287  H     
36   H        73.1365   -5.3167   60.4447  H     
37   H        73.9167   -4.9614   63.3467  H     
38   H        72.3089   -5.0072   62.6074  H     
39   H        72.6279   -7.4981   62.2204  H     
40   H        72.6600   -7.0045   63.9153  H     
41   H        77.5308   -1.3028   59.5555  H     
42   H        79.1793   -2.0770   61.2020  H     
43   H        78.5027   -3.8209   62.7936  H     
@<TRIPOS>BOND
     1    1    2 1
     2    1   14 1
     3    1   18 1
     4    2    3 am
     5    2    4 2
     6    3    5 1
     7    5    6 1
     8    6    7 2
     9    6   11 1
    10    7    8 1
    11    8    9 2
    12    9   10 1
    13    9   13 1
    14   10   11 2
    15   11   12 1
    16   14   15 1
    17   15   16 1
    18   16   17 1
    19   16   19 1
    20   17   18 1
    21   19   20 1
    22   20   21 2
    23   20   25 1
    24   21   22 1
    25   22   23 2
    26   23   24 1
    27   24   25 2
    28    3   26 1
    29    5   27 1
    30    5   28 1
    31    7   29 1
    32    8   30 1
    33   10   31 1
    34   14   32 1
    35   14   33 1
    36   15   34 1
    37   15   35 1
    38   16   36 1
    39   17   37 1
    40   17   38 1
    41   18   39 1
    42   18   40 1
    43   22   41 1
    44   23   42 1
    45   24   43 1
@<TRIPOS>PROPERTY_DATA
  Total_Score	| 8.7460
  Crash		| -1.9996
  Polar		| 3.1786
  FragIndex	| 1
  FragRMSD	| 0.470

