@<TRIPOS>MOLECULE
BindingDB_50305613
 38 39 0 0 0
SMALL
NO_CHARGES


@<TRIPOS>ATOM
1    C        73.6450   -4.6978   62.9642  C     
2    C        73.8652   -4.9644   61.4580  C     
3    C        75.1468   -5.8426   61.1718  C     
4    C        75.8626   -6.3215   62.4846  C     
5    N        74.9379   -6.8322   63.4932  N     
6    C        73.7428   -6.0344   63.7554  C     
7    C        75.1597   -7.9673   64.1982  C     
8    N        74.3142   -8.3996   65.1424  N     
9    O        76.1530   -8.6533   63.9719  O     
10   C        74.3466   -9.6151   65.9161  C     
11   C        74.8369   -6.9974   60.1565  C     
12   O        75.7602   -8.0913   60.2100  O     
13   C        74.2068   -9.4067   67.3907  C     
14   C        74.6824   -8.1986   67.9534  C     
15   C        74.7222   -7.9992   69.3463  C     
16   C        74.2647   -9.0072   70.2125  C     
17   C        73.7394  -10.1956   69.6784  C     
18   C        73.7346  -10.4122   68.2829  C     
19   Cl       73.2417  -11.9599   67.7704  Cl    
20   Cl       74.4295   -8.8341   71.8885  Cl    
21   H        74.4151   -4.0078   63.3285  H     
22   H        72.6705   -4.2301   63.1381  H     
23   H        72.9546   -5.4450   61.0847  H     
24   H        73.9398   -3.9991   60.9446  H     
25   H        75.8718   -5.1833   60.6759  H     
26   H        76.6606   -7.0219   62.2357  H     
27   H        76.3596   -5.4534   62.9240  H     
28   H        73.6991   -5.7884   64.8271  H     
29   H        72.8611   -6.6444   63.4985  H     
30   H        73.5379   -7.8395   65.3111  H     
31   H        73.5153  -10.2119   65.5412  H     
32   H        75.2669  -10.1762   65.7457  H     
33   H        73.8319   -7.4068   60.3311  H     
34   H        74.8577   -6.6012   59.1323  H     
35   H        75.5125   -8.5712   61.0400  H     
36   H        75.0513   -7.4604   67.3570  H     
37   H        75.1122   -7.1302   69.7203  H     
38   H        73.4000  -10.9208   70.3199  H     
@<TRIPOS>BOND
     1    1    2 1
     2    1    6 1
     3    2    3 1
     4    3    4 1
     5    3   11 1
     6    4    5 1
     7    5    6 1
     8    5    7 1
     9    7    8 am
    10    7    9 2
    11    8   10 1
    12   10   13 1
    13   11   12 1
    14   13   14 2
    15   13   18 1
    16   14   15 1
    17   15   16 2
    18   16   17 1
    19   16   20 1
    20   17   18 2
    21   18   19 1
    22    1   21 1
    23    1   22 1
    24    2   23 1
    25    2   24 1
    26    3   25 1
    27    4   26 1
    28    4   27 1
    29    6   28 1
    30    6   29 1
    31    8   30 1
    32   10   31 1
    33   10   32 1
    34   11   33 1
    35   11   34 1
    36   12   35 1
    37   14   36 1
    38   15   37 1
    39   17   38 1
@<TRIPOS>PROPERTY_DATA
  Total_Score	| 6.5981
  Crash		| -2.1315
  Polar		| 3.1246
  FragIndex	| 1
  FragRMSD	| 1.171

