@<TRIPOS>MOLECULE
BindingDB_50292721
 74 78 0 0 0
SMALL
NO_CHARGES


@<TRIPOS>ATOM
1    C        37.3036    6.2726   22.6137  C     
2    C        36.4827    5.3103   23.3381  C     
3    C        37.0004    4.0998   23.6634  C     
4    N        36.2820    3.1533   24.3454  N     
5    C        35.0149    3.4489   24.6981  C     
6    O        34.2884    2.6771   25.3090  O     
7    N        34.4893    4.6292   24.3731  N     
8    C        35.1879    5.5511   23.7246  C     
9    O        34.6306    6.6206   23.5199  O     
10   C        36.8620    1.8411   24.6160  C     
11   C        36.5814    0.8421   23.4806  C     
12   C        37.6837   -0.2172   23.6452  C     
13   C        38.7274    0.4937   24.5518  C     
14   O        38.2928    1.8410   24.7191  O     
15   C        40.1792    0.5172   24.0197  C     
16   O        40.9854    1.5356   24.6468  O     
17   P        41.5773    1.2543   26.0638  P     
18   O        41.1201    2.2515   26.9983  O     
19   O        41.3439   -0.1654   26.6221  O     
20   O        43.0971    1.4592   25.9486  O     
21   O        37.1755   -1.3890   24.3214  O     
22   P        36.8756   -2.6624   23.4702  P     
23   O        35.7120   -2.4747   22.6446  O     
24   O        38.0670   -3.0397   22.5479  O     
25   P        39.4696   -3.1371   23.2251  P     
26   O        39.6317   -2.4734   24.5021  O     
27   O        39.7363   -4.6389   23.4459  O     
28   O        40.4446   -2.4071   22.2406  O     
29   C        41.0332   -3.0705   21.0978  C     
30   C        40.0923   -3.9873   20.2872  C     
31   C        40.7501   -4.7388   19.1236  C     
32   C        39.4711   -5.2557   18.4146  C     
33   C        38.4043   -4.1697   18.7419  C     
34   O        39.0320   -3.2585   19.6601  O     
35   N        37.9174   -3.5404   17.5443  N     
36   C        38.3321   -2.3663   17.0292  C     
37   N        37.8161   -2.1824   15.8012  N     
38   C        37.0521   -3.2465   15.5383  C     
39   C        37.0992   -4.0989   16.6330  C     
40   N        36.4220   -5.2767   16.6196  N     
41   C        35.6855   -5.6282   15.5290  C     
42   N        35.6498   -4.8125   14.4420  N     
43   C        36.3167   -3.6293   14.4066  C     
44   N        36.2902   -2.8754   13.2921  N     
45   O        39.0578   -6.5253   18.9594  O     
46   O        41.6602   -5.7553   19.6263  O     
47   P        42.6311   -6.4064   18.5805  P     
48   O        41.9442   -7.1474   17.5505  O     
49   O        43.5661   -5.3608   17.9303  O     
50   O        43.5243   -7.4058   19.3389  O     
51   O        36.5749   -3.8228   24.4333  O     
52   H        38.1437    6.5808   23.2375  H     
53   H        36.7511    7.1665   22.3253  H     
54   H        37.6929    5.8146   21.7039  H     
55   H        37.9289    3.8910   23.3662  H     
56   H        33.5724    4.8240   24.6256  H     
57   H        36.4792    1.4470   25.5679  H     
58   H        35.5856    0.4103   23.5746  H     
59   H        36.6813    1.3303   22.5099  H     
60   H        38.1322   -0.4231   22.6633  H     
61   H        38.7352    0.0366   25.5407  H     
62   H        40.6273   -0.4698   24.1230  H     
63   H        40.1540    0.7421   22.9529  H     
64   H        41.4041   -2.2700   20.4512  H     
65   H        41.9159   -3.6377   21.4359  H     
66   H        39.7014   -4.7252   20.9907  H     
67   H        41.2721   -4.0086   18.4762  H     
68   H        39.6613   -5.3747   17.3402  H     
69   H        37.5688   -4.6239   19.2812  H     
70   H        38.9955   -1.7268   17.4682  H     
71   H        35.1673   -6.5101   15.5219  H     
72   H        35.7868   -3.1706   12.5094  H     
73   H        36.7938   -2.0431   13.2509  H     
74   H        39.7084   -7.1769   18.6158  H     
@<TRIPOS>BOND
     1    1    2 1
     2    2    3 2
     3    2    8 1
     4    3    4 1
     5    4    5 1
     6   10    4 1
     7    5    6 2
     8    5    7 1
     9    7    8 1
    10    8    9 2
    11   10   11 1
    12   10   14 1
    13   11   12 1
    14   12   13 1
    15   12   21 1
    16   13   14 1
    17   13   15 1
    18   15   16 1
    19   16   17 1
    20   17   18 2
    21   17   19 1
    22   17   20 1
    23   21   22 1
    24   22   23 2
    25   22   24 1
    26   22   51 1
    27   24   25 1
    28   25   26 2
    29   25   27 1
    30   25   28 1
    31   28   29 1
    32   30   29 1
    33   30   31 1
    34   30   34 1
    35   31   32 1
    36   31   46 1
    37   32   33 1
    38   32   45 1
    39   33   34 1
    40   33   35 1
    41   35   36 1
    42   35   39 1
    43   36   37 2
    44   37   38 1
    45   38   39 2
    46   38   43 1
    47   39   40 1
    48   40   41 2
    49   41   42 1
    50   42   43 2
    51   43   44 1
    52   46   47 1
    53   47   48 2
    54   47   49 1
    55   47   50 1
    56    1   52 1
    57    1   53 1
    58    1   54 1
    59    3   55 1
    60    7   56 1
    61   10   57 1
    62   11   58 1
    63   11   59 1
    64   12   60 1
    65   13   61 1
    66   15   62 1
    67   15   63 1
    68   29   64 1
    69   29   65 1
    70   30   66 1
    71   31   67 1
    72   32   68 1
    73   33   69 1
    74   36   70 1
    75   41   71 1
    76   44   72 1
    77   44   73 1
    78   45   74 1
@<TRIPOS>PROPERTY_DATA
  Total_Score	| 9.9644
  Crash		| -2.1326
  Polar		| 9.2080
  FragIndex	| 1
  FragRMSD	| 1.477

