@<TRIPOS>MOLECULE
BindingDB_50292724
 32 33 0 0 0
SMALL
NO_CHARGES


@<TRIPOS>ATOM
1    C        35.9120    4.6167   22.8456  C     
2    C        36.6527    3.5699   23.2490  C     
3    N        36.2327    2.7308   24.2465  N     
4    C        35.0547    3.0111   24.8558  C     
5    N        34.3272    4.0578   24.4582  N     
6    C        34.7316    4.8562   23.4762  C     
7    O        34.0299    5.8119   23.1729  O     
8    O        34.5767    2.3505   25.7651  O     
9    C        37.0202    1.5587   24.5857  C     
10   O        38.3941    1.8400   24.8730  O     
11   C        39.0881    0.5773   24.8461  C     
12   C        38.3615   -0.3227   23.8002  C     
13   C        37.0798    0.4819   23.4813  C     
14   O        37.1987    0.9754   22.1511  O     
15   O        38.0580   -1.6230   24.3618  O     
16   C        40.6209    0.7945   24.6455  C     
17   O        40.9308    2.0996   24.1607  O     
18   P        37.3964   -2.7104   23.4502  P     
19   O        35.9872   -2.3463   22.9334  O     
20   O        38.2928   -3.1082   22.2599  O     
21   O        37.2171   -3.8850   24.2643  O     
22   H        36.2180    5.1992   22.0968  H     
23   H        37.5181    3.4051   22.7897  H     
24   H        33.4775    4.2441   24.8836  H     
25   H        36.6085    1.0786   25.4842  H     
26   H        38.9557    0.1331   25.8341  H     
27   H        38.9976   -0.4287   22.9150  H     
28   H        36.1716   -0.1199   23.5381  H     
29   H        36.3005    1.2422   21.8844  H     
30   H        41.1432    0.6653   25.5998  H     
31   H        41.0303    0.0621   23.9446  H     
32   H        40.6152    2.7065   24.8604  H     
@<TRIPOS>BOND
     1    1    2 2
     2    1    6 1
     3    2    3 1
     4    3    4 1
     5    9    3 1
     6    4    5 1
     7    4    8 2
     8    5    6 1
     9    6    7 2
    10    9   10 1
    11    9   13 1
    12   10   11 1
    13   11   12 1
    14   11   16 1
    15   12   13 1
    16   12   15 1
    17   13   14 1
    18   15   18 1
    19   16   17 1
    20   18   19 1
    21   18   20 1
    22   18   21 2
    23    1   22 1
    24    2   23 1
    25    5   24 1
    26    9   25 1
    27   11   26 1
    28   12   27 1
    29   13   28 1
    30   14   29 1
    31   16   30 1
    32   16   31 1
    33   17   32 1
@<TRIPOS>PROPERTY_DATA
  Total_Score	| 3.9921
  Crash		| -2.2996
  Polar		| 6.6085
  FragIndex	| 1
  FragRMSD	| 1.173

