@<TRIPOS>MOLECULE
BindingDB_50331792
 29 30 0 0 0
SMALL
NO_CHARGES


@<TRIPOS>ATOM
1    O        38.6617   -1.4362   24.6419  O     
2    C        38.8127   -0.2736   23.8360  C     
3    C        37.4492    0.3752   23.5965  C     
4    C        39.5819    0.8355   24.6059  C     
5    C        37.2884    1.2905   24.8297  C     
6    O        38.6138    1.7362   25.1771  O     
7    C        40.4934    1.6777   23.7819  C     
8    O        40.8727    1.3601   22.5197  O     
9    N        36.3880    2.4109   24.5879  N     
10   C        35.1555    2.4798   25.1308  C     
11   N        34.3366    3.4665   24.7896  N     
12   C        34.6964    4.4210   23.9387  C     
13   C        35.9585    4.4266   23.3908  C     
14   C        36.7840    3.4141   23.7445  C     
15   O        34.7054    1.6541   25.9116  O     
16   O        33.8604    5.2800   23.6871  O     
17   C        36.4238    5.4581   22.4719  C     
18   O        40.9436    2.8521   24.2799  O     
19   H        39.4843   -1.9588   24.4967  H     
20   H        39.2805   -0.5788   22.8956  H     
21   H        37.4769    0.9520   22.6669  H     
22   H        36.6496   -0.3618   23.5227  H     
23   H        40.1817    0.3987   25.4085  H     
24   H        36.9566    0.6634   25.6632  H     
25   H        33.4404    3.4835   25.1573  H     
26   H        37.7016    3.4023   23.3657  H     
27   H        36.8057    4.9953   21.5563  H     
28   H        37.2367    6.0286   22.9350  H     
29   H        35.6415    6.1614   22.1826  H     
@<TRIPOS>BOND
     1    2    1 1
     2    2    3 1
     3    2    4 1
     4    3    5 1
     5    4    6 1
     6    4    7 1
     7    5    6 1
     8    5    9 1
     9    7    8 1
    10    7   18 2
    11    9   10 1
    12    9   14 1
    13   10   11 1
    14   10   15 2
    15   11   12 1
    16   12   13 1
    17   12   16 2
    18   13   14 2
    19   13   17 1
    20    1   19 1
    21    2   20 1
    22    3   21 1
    23    3   22 1
    24    4   23 1
    25    5   24 1
    26   11   25 1
    27   14   26 1
    28   17   27 1
    29   17   28 1
    30   17   29 1
@<TRIPOS>PROPERTY_DATA
  Total_Score	| 1.5963
  Crash		| -1.7247
  Polar		| 2.0938
  FragIndex	| 1
  FragRMSD	| 0.676

