@<TRIPOS>MOLECULE
BindingDB_50292715
 53 55 0 0 0
SMALL
NO_CHARGES


@<TRIPOS>ATOM
1    C        35.7852    4.4406   22.7787  C     
2    C        36.5348    3.3914   23.1532  C     
3    N        36.1685    2.5724   24.1973  N     
4    C        35.0406    2.8790   24.8665  C     
5    N        34.3006    3.9234   24.4994  N     
6    C        34.6462    4.6995   23.4757  C     
7    O        33.9436    5.6695   23.2063  O     
8    O        34.6368    2.2687   25.8573  O     
9    C        37.0529    1.4878   24.6067  C     
10   O        38.3090    2.0705   24.9766  O     
11   C        39.3706    1.1150   24.7798  C     
12   C        38.7893   -0.0408   23.9061  C     
13   C        37.3736    0.4375   23.5150  C     
14   O        36.4189   -0.6269   23.4704  O     
15   O        38.7341   -1.2561   24.6681  O     
16   C        40.5859    1.9018   24.1883  C     
17   N        41.9811    1.4272   24.4611  N     
18   C        42.2700    1.1665   25.9122  C     
19   C        43.7866    0.9546   26.1353  C     
20   C        44.3187   -0.1996   25.2394  C     
21   C        43.9880    0.0913   23.7453  C     
22   C        42.4639    0.3335   23.5641  C     
23   C        45.7617   -0.4508   25.4663  C     
24   O        46.1409   -1.6838   25.8976  O     
25   O        46.6825    0.5233   25.2502  O     
26   C        47.4609   -2.1265   26.2161  C     
27   C        47.4097   -3.5944   26.6770  C     
28   H        36.0756    5.0335   22.0286  H     
29   H        37.4040    3.2516   22.6742  H     
30   H        33.4938    4.1400   24.9942  H     
31   H        36.6938    0.9623   25.4949  H     
32   H        39.6214    0.7450   25.7722  H     
33   H        39.3775   -0.2248   22.9952  H     
34   H        37.4297    0.8976   22.5218  H     
35   H        35.6870   -0.2814   22.9145  H     
36   H        39.5889   -1.7055   24.4843  H     
37   H        40.4416    1.9793   23.1012  H     
38   H        40.5255    2.9256   24.5600  H     
39   H        42.5650    2.2314   24.2172  H     
40   H        41.9509    2.0246   26.5135  H     
41   H        41.7313    0.2813   26.2645  H     
42   H        44.3114    1.8882   25.9018  H     
43   H        43.9528    0.7178   27.1908  H     
44   H        43.7793   -1.1128   25.5234  H     
45   H        44.5348    0.9806   23.4139  H     
46   H        44.3013   -0.7581   23.1288  H     
47   H        41.9382   -0.6019   23.7725  H     
48   H        42.2901    0.6008   22.5144  H     
49   H        48.1061   -2.0437   25.3378  H     
50   H        47.8622   -1.5023   27.0167  H     
51   H        46.7214   -3.7011   27.5167  H     
52   H        48.4036   -3.9187   26.9912  H     
53   H        47.0716   -4.2310   25.8569  H     
@<TRIPOS>BOND
     1    1    2 2
     2    1    6 1
     3    2    3 1
     4    3    4 1
     5    9    3 1
     6    4    5 1
     7    4    8 2
     8    5    6 1
     9    6    7 2
    10    9   10 1
    11    9   13 1
    12   10   11 1
    13   11   12 1
    14   11   16 1
    15   12   13 1
    16   12   15 1
    17   13   14 1
    18   16   17 1
    19   17   18 1
    20   17   22 1
    21   18   19 1
    22   19   20 1
    23   20   21 1
    24   20   23 1
    25   21   22 1
    26   23   24 1
    27   23   25 2
    28   24   26 1
    29   26   27 1
    30    1   28 1
    31    2   29 1
    32    5   30 1
    33    9   31 1
    34   11   32 1
    35   12   33 1
    36   13   34 1
    37   14   35 1
    38   15   36 1
    39   16   37 1
    40   16   38 1
    41   17   39 1
    42   18   40 1
    43   18   41 1
    44   19   42 1
    45   19   43 1
    46   20   44 1
    47   21   45 1
    48   21   46 1
    49   22   47 1
    50   22   48 1
    51   26   49 1
    52   26   50 1
    53   27   51 1
    54   27   52 1
    55   27   53 1
@<TRIPOS>PROPERTY_DATA
  Total_Score	| 4.4428
  Crash		| -2.0685
  Polar		| 3.7588
  FragIndex	| 1
  FragRMSD	| 0.769

