@<TRIPOS>MOLECULE
BindingDB_50292719
 44 46 0 0 0
SMALL
NO_CHARGES


@<TRIPOS>ATOM
1    C        35.8058    4.4118   22.8556  C     
2    C        36.5781    3.3766   23.2379  C     
3    N        36.2141    2.5429   24.2691  N     
4    C        35.0476    2.7984   24.9030  C     
5    N        34.2859    3.8183   24.5182  N     
6    C        34.6361    4.6238   23.5177  C     
7    O        33.9052    5.5546   23.2218  O     
8    O        34.6238    2.1348   25.8424  O     
9    C        37.1058    1.4586   24.6587  C     
10   O        38.3779    2.0031   25.0216  O     
11   C        39.4091    1.0179   24.7911  C     
12   C        38.7716   -0.1236   23.9362  C     
13   C        37.3885    0.4285   23.5447  C     
14   O        36.3830   -0.5797   23.4641  O     
15   O        38.6347   -1.3163   24.7188  O     
16   C        40.6161    1.7567   24.1337  C     
17   N        42.0077    1.2744   24.4245  N     
18   C        42.4466    0.1035   23.5952  C     
19   C        43.9746   -0.1356   23.7432  C     
20   C        44.3854   -0.2703   25.2324  C     
21   C        43.8499    0.9149   26.0764  C     
22   C        42.3249    1.0944   25.8785  C     
23   H        36.0884    5.0071   22.1051  H     
24   H        37.4427    3.2431   22.7638  H     
25   H        33.4391    3.9792   24.9620  H     
26   H        36.7330    0.9121   25.5355  H     
27   H        39.7000    0.6434   25.7677  H     
28   H        39.3489   -0.3666   23.0386  H     
29   H        37.4798    0.9152   22.5666  H     
30   H        35.6606   -0.1770   22.9329  H     
31   H        39.4321   -1.8541   24.5084  H     
32   H        40.4791    1.7791   23.0495  H     
33   H        40.5892    2.8077   24.4462  H     
34   H        42.6077    2.0471   24.1162  H     
35   H        41.9070   -0.7995   23.8985  H     
36   H        42.2379    0.2928   22.5364  H     
37   H        44.2505   -1.0468   23.2012  H     
38   H        44.5165    0.7058   23.2943  H     
39   H        43.9839   -1.2102   25.6289  H     
40   H        45.4748   -0.3105   25.3067  H     
41   H        44.0536    0.7299   27.1311  H     
42   H        44.3665    1.8338   25.7805  H     
43   H        42.0078    1.9720   26.4478  H     
44   H        41.8152    0.2180   26.2862  H     
@<TRIPOS>BOND
     1    1    2 2
     2    1    6 1
     3    2    3 1
     4    3    4 1
     5    9    3 1
     6    4    5 1
     7    4    8 2
     8    5    6 1
     9    6    7 2
    10    9   10 1
    11    9   13 1
    12   10   11 1
    13   11   12 1
    14   11   16 1
    15   12   13 1
    16   12   15 1
    17   13   14 1
    18   16   17 1
    19   17   18 1
    20   17   22 1
    21   18   19 1
    22   19   20 1
    23   20   21 1
    24   21   22 1
    25    1   23 1
    26    2   24 1
    27    5   25 1
    28    9   26 1
    29   11   27 1
    30   12   28 1
    31   13   29 1
    32   14   30 1
    33   15   31 1
    34   16   32 1
    35   16   33 1
    36   17   34 1
    37   18   35 1
    38   18   36 1
    39   19   37 1
    40   19   38 1
    41   20   39 1
    42   20   40 1
    43   21   41 1
    44   21   42 1
    45   22   43 1
    46   22   44 1
@<TRIPOS>PROPERTY_DATA
  Total_Score	| 3.3308
  Crash		| -2.0509
  Polar		| 3.6982
  FragIndex	| 1
  FragRMSD	| 0.771

