@<TRIPOS>MOLECULE
BindingDB_50292720
 42 44 0 0 0
SMALL
NO_CHARGES


@<TRIPOS>ATOM
1    C        35.7254    4.4819   22.8496  C     
2    C        36.5254    3.4832   23.2721  C     
3    N        36.1656    2.6657   24.3202  N     
4    C        35.0018    2.9236   24.9588  C     
5    N        34.2257    3.9276   24.5432  N     
6    C        34.5668    4.7064   23.5224  C     
7    O        33.8296    5.6313   23.2170  O     
8    O        34.5938    2.2789   25.9190  O     
9    C        37.0836    1.6208   24.7400  C     
10   O        38.3770    2.1820   25.0049  O     
11   C        39.3576    1.1277   24.9050  C     
12   C        38.7387    0.0262   23.9968  C     
13   C        37.3315    0.5499   23.6571  C     
14   O        36.3321   -0.4721   23.6564  O     
15   O        38.6505   -1.2290   24.6655  O     
16   C        40.6924    1.7579   24.3882  C     
17   N        42.0268    1.0702   24.6315  N     
18   C        41.9481   -0.3178   25.2053  C     
19   C        43.3450   -0.9344   25.5149  C     
20   O        44.1566   -0.0153   26.2762  O     
21   C        44.3640    1.2377   25.5848  C     
22   C        43.0046    1.9348   25.3635  C     
23   H        35.9940    5.0493   22.0803  H     
24   H        37.3851    3.3338   22.7841  H     
25   H        33.3866    4.0982   24.9924  H     
26   H        36.7495    1.1084   25.6564  H     
27   H        39.5163    0.7676   25.9367  H     
28   H        39.3119   -0.1247   23.0752  H     
29   H        37.3699    0.9948   22.6521  H     
30   H        35.6190   -0.0977   23.0982  H     
31   H        39.3919   -1.7851   24.3289  H     
32   H        40.5984    1.8917   23.3086  H     
33   H        40.7203    2.7728   24.7984  H     
34   H        42.4339    0.9349   23.6956  H     
35   H        41.3642   -0.3128   26.1306  H     
36   H        41.4735   -0.9740   24.4745  H     
37   H        43.2061   -1.8365   26.1116  H     
38   H        43.8564   -1.2259   24.5810  H     
39   H        45.0012    1.8674   26.2101  H     
40   H        44.8803    1.0691   24.6242  H     
41   H        43.1838    2.8463   24.7792  H     
42   H        42.5934    2.2155   26.3473  H     
@<TRIPOS>BOND
     1    1    2 2
     2    1    6 1
     3    2    3 1
     4    3    4 1
     5    9    3 1
     6    4    5 1
     7    4    8 2
     8    5    6 1
     9    6    7 2
    10    9   10 1
    11    9   13 1
    12   10   11 1
    13   11   12 1
    14   11   16 1
    15   12   13 1
    16   12   15 1
    17   13   14 1
    18   16   17 1
    19   17   18 1
    20   17   22 1
    21   18   19 1
    22   19   20 1
    23   20   21 1
    24   21   22 1
    25    1   23 1
    26    2   24 1
    27    5   25 1
    28    9   26 1
    29   11   27 1
    30   12   28 1
    31   13   29 1
    32   14   30 1
    33   15   31 1
    34   16   32 1
    35   16   33 1
    36   17   34 1
    37   18   35 1
    38   18   36 1
    39   19   37 1
    40   19   38 1
    41   21   39 1
    42   21   40 1
    43   22   41 1
    44   22   42 1
@<TRIPOS>PROPERTY_DATA
  Total_Score	| 4.2881
  Crash		| -2.2893
  Polar		| 5.0847
  FragIndex	| 1
  FragRMSD	| 0.778

