@<TRIPOS>MOLECULE
BindingDB_50118239
 36 37 0 0 0
SMALL
NO_CHARGES


@<TRIPOS>ATOM
1    C        37.0106    1.3642   24.6218  C     
2    C        35.9627    4.4270   22.8434  C     
3    C        36.6438    3.3310   23.2214  C     
4    N        36.2012    2.5094   24.2244  N     
5    C        35.0491    2.8425   24.8503  C     
6    N        34.3682    3.9252   24.4680  N     
7    C        34.8029    4.7139   23.4898  C     
8    O        34.1542    5.7103   23.2067  O     
9    O        34.5727    2.2222   25.7938  O     
10   O        38.2571    1.8197   25.1717  O     
11   C        39.3629    1.1253   24.5698  C     
12   C        38.7576   -0.1154   23.8730  C     
13   C        37.3504    0.3642   23.4914  C     
14   C        40.1307    2.0889   23.6149  C     
15   O        40.1003    3.4210   24.1708  O     
16   O        36.4004   -0.6951   23.3847  O     
17   O        38.6843   -1.2193   24.7709  O     
18   P        40.1749    4.6340   23.1968  P     
19   O        41.5078    5.1901   23.2218  O     
20   O        39.7749    4.2336   21.7577  O     
21   O        39.1602    5.6514   23.7925  O     
22   P        39.1995    7.1011   23.2334  P     
23   O        38.4965    7.2164   21.8654  O     
24   O        40.5288    7.6415   23.1421  O     
25   O        38.4111    7.9738   24.2312  O     
26   H        36.5421    0.7871   25.4266  H     
27   H        36.2997    5.0118   22.1126  H     
28   H        37.4885    3.1268   22.7425  H     
29   H        33.5372    4.1529   24.9149  H     
30   H        40.0467    0.8209   25.3655  H     
31   H        39.3261   -0.4265   22.9950  H     
32   H        37.3971    0.8593   22.5185  H     
33   H        41.1645    1.7524   23.4979  H     
34   H        39.6476    2.0523   22.6323  H     
35   H        35.6655   -0.3182   22.8554  H     
36   H        39.5290   -1.7016   24.6570  H     
@<TRIPOS>BOND
     1    1    4 1
     2    1   10 1
     3    1   13 1
     4    2    3 2
     5    2    7 1
     6    3    4 1
     7    4    5 1
     8    5    6 1
     9    5    9 2
    10    6    7 1
    11    7    8 2
    12   10   11 1
    13   11   12 1
    14   11   14 1
    15   12   13 1
    16   12   17 1
    17   13   16 1
    18   14   15 1
    19   15   18 1
    20   18   19 2
    21   18   20 1
    22   18   21 1
    23   21   22 1
    24   22   23 1
    25   22   24 2
    26   22   25 1
    27    1   26 1
    28    2   27 1
    29    3   28 1
    30    6   29 1
    31   11   30 1
    32   12   31 1
    33   13   32 1
    34   14   33 1
    35   14   34 1
    36   16   35 1
    37   17   36 1
@<TRIPOS>PROPERTY_DATA
  Total_Score	| 5.0270
  Crash		| -1.6287
  Polar		| 7.2729
  FragIndex	| 1
  FragRMSD	| 0.839

