@<TRIPOS>MOLECULE
BindingDB_50342006
 46 48 0 0 0
SMALL
NO_CHARGES


@<TRIPOS>ATOM
1    C        38.6456    0.1380   23.4983  C     
2    C        37.1625    0.1883   23.9030  C     
3    C        37.0834    1.4270   24.8442  C     
4    O        38.4244    1.9199   25.0160  O     
5    C        39.3297    0.8699   24.6687  C     
6    N        36.2360    2.5008   24.3496  N     
7    O        36.7801   -1.0006   24.5960  O     
8    O        39.1477   -1.1837   23.3026  O     
9    C        40.7176    1.4683   24.3268  C     
10   N        41.7914    0.4167   24.2422  N     
11   C        42.8669    0.7075   23.2430  C     
12   C        43.8590    1.7984   23.7311  C     
13   C        44.4933    1.4124   25.1021  C     
14   C        43.3844    1.0631   26.1360  C     
15   C        42.3724    0.0254   25.5710  C     
16   C        45.4018    2.4499   25.6426  C     
17   O        46.0532    2.2219   26.8057  O     
18   O        45.6543    3.6128   25.0004  O     
19   C        36.6514    3.2383   23.2676  C     
20   C        35.9489    4.2989   22.8247  C     
21   C        34.7884    4.6150   23.4617  C     
22   N        34.3598    3.8758   24.4784  N     
23   C        35.0602    2.8381   24.9338  C     
24   O        34.5758    2.2476   25.8905  O     
25   O        34.1249    5.5838   23.1228  O     
26   H        38.7794    0.6965   22.5648  H     
27   H        36.5265    0.2926   23.0172  H     
28   H        36.7654    1.0933   25.8398  H     
29   H        39.4164    0.1940   25.5215  H     
30   H        35.8188   -1.1052   24.4223  H     
31   H        38.6700   -1.5262   22.5146  H     
32   H        40.6171    2.0139   23.3848  H     
33   H        40.9677    2.2217   25.0795  H     
34   H        41.3243   -0.4200   23.8904  H     
35   H        43.4207   -0.2133   23.0479  H     
36   H        42.4301    1.0156   22.2905  H     
37   H        44.6444    1.9204   22.9792  H     
38   H        43.3220    2.7468   23.8198  H     
39   H        45.1005    0.5153   24.9391  H     
40   H        43.8394    0.6473   27.0390  H     
41   H        42.8514    1.9715   26.4276  H     
42   H        41.5893   -0.1370   26.3136  H     
43   H        42.8885   -0.9341   25.4538  H     
44   H        37.4954    3.0114   22.7965  H     
45   H        36.2702    4.8370   22.0493  H     
46   H        33.5113    4.1064   24.8935  H     
@<TRIPOS>BOND
     1    1    2 1
     2    1    5 1
     3    1    8 1
     4    2    3 1
     5    2    7 1
     6    3    4 1
     7    3    6 1
     8    4    5 1
     9    5    9 1
    10    6   19 1
    11    6   23 1
    12    9   10 1
    13   10   11 1
    14   10   15 1
    15   11   12 1
    16   12   13 1
    17   13   14 1
    18   13   16 1
    19   14   15 1
    20   16   17 1
    21   16   18 2
    22   19   20 2
    23   20   21 1
    24   21   22 1
    25   21   25 2
    26   22   23 1
    27   23   24 2
    28    1   26 1
    29    2   27 1
    30    3   28 1
    31    5   29 1
    32    7   30 1
    33    8   31 1
    34    9   32 1
    35    9   33 1
    36   10   34 1
    37   11   35 1
    38   11   36 1
    39   12   37 1
    40   12   38 1
    41   13   39 1
    42   14   40 1
    43   14   41 1
    44   15   42 1
    45   15   43 1
    46   19   44 1
    47   20   45 1
    48   22   46 1
@<TRIPOS>PROPERTY_DATA
  Total_Score	| 3.7840
  Crash		| -1.8612
  Polar		| 4.1579
  FragIndex	| 1
  FragRMSD	| 0.414

