@<TRIPOS>MOLECULE
BindingDB_50292723
 32 33 0 0 0
SMALL
NO_CHARGES


@<TRIPOS>ATOM
1    O        40.5096    3.0293   23.9471  O     
2    C        40.6323    1.8622   24.7551  C     
3    C        39.3208    1.0412   24.8334  C     
4    C        38.8823    0.3813   23.5121  C     
5    O        39.6465   -0.7940   23.2554  O     
6    C        37.3741    0.1509   23.7417  C     
7    O        37.1434   -1.1210   24.4102  O     
8    C        37.0204    1.3022   24.7335  C     
9    O        38.2410    1.9047   25.1868  O     
10   N        36.1927    2.3842   24.2214  N     
11   C        35.0576    2.7942   24.8452  C     
12   O        34.5640    2.2370   25.8292  O     
13   N        34.4409    3.9092   24.4543  N     
14   C        34.8880    4.6309   23.4214  C     
15   O        34.3170    5.6734   23.1397  O     
16   C        36.0113    4.2407   22.7477  C     
17   C        36.6383    3.1206   23.1598  C     
18   P        36.8494   -2.3776   23.5382  P     
19   O        37.9226   -2.6257   22.4551  O     
20   O        36.8291   -3.5990   24.4809  O     
21   O        35.5442   -2.2954   22.9292  O     
22   H        39.8786    3.6106   24.4296  H     
23   H        41.4223    1.2370   24.3397  H     
24   H        40.9240    2.1705   25.7578  H     
25   H        39.4153    0.2680   25.6021  H     
26   H        39.0272    1.0757   22.6762  H     
27   H        39.3404   -1.1118   22.3850  H     
28   H        36.8059    0.2618   22.8114  H     
29   H        36.5697    0.8604   25.6286  H     
30   H        33.6533    4.2317   24.9367  H     
31   H        36.3733    4.7696   21.9868  H     
32   H        37.4498    2.8585   22.6572  H     
@<TRIPOS>BOND
     1    1    2 1
     2    3    2 1
     3    3    4 1
     4    3    9 1
     5    4    5 1
     6    4    6 1
     7    6    7 1
     8    6    8 1
     9    7   18 1
    10    8    9 1
    11    8   10 1
    12   10   11 1
    13   10   17 1
    14   11   12 2
    15   11   13 1
    16   13   14 1
    17   14   15 2
    18   14   16 1
    19   16   17 2
    20   18   19 1
    21   18   20 1
    22   18   21 2
    23    1   22 1
    24    2   23 1
    25    2   24 1
    26    3   25 1
    27    4   26 1
    28    5   27 1
    29    6   28 1
    30    8   29 1
    31   13   30 1
    32   16   31 1
    33   17   32 1
@<TRIPOS>PROPERTY_DATA
  Total_Score	| 4.8943
  Crash		| -1.4463
  Polar		| 6.3303
  FragIndex	| 1
  FragRMSD	| 0.281

