@<TRIPOS>MOLECULE
BindingDB_50292722
 32 33 0 0 0
SMALL
NO_CHARGES


@<TRIPOS>ATOM
1    O        40.7695    2.1797   23.8618  O     
2    C        40.5736    0.8327   24.2821  C     
3    C        39.1076    0.5700   24.7070  C     
4    C        38.2691   -0.2862   23.7123  C     
5    O        38.1192   -1.6318   24.2329  O     
6    C        36.9406    0.4985   23.6254  C     
7    O        35.7689   -0.2843   23.8328  O     
8    C        37.0362    1.5763   24.7252  C     
9    O        38.4390    1.8266   24.8821  O     
10   N        36.2787    2.7655   24.3619  N     
11   C        35.0862    3.0626   24.9270  C     
12   O        34.5934    2.4181   25.8411  O     
13   N        34.3838    4.1060   24.4896  N     
14   C        34.8234    4.8830   23.5048  C     
15   C        36.0127    4.6166   22.9036  C     
16   C        36.7216    3.5567   23.3351  C     
17   P        37.4646   -2.7160   23.3245  P     
18   O        38.4232   -3.1387   22.1967  O     
19   O        36.1837   -2.3196   22.7918  O     
20   O        37.2194   -3.9555   24.2102  O     
21   O        34.1442    5.8370   23.1636  O     
22   H        40.5813    2.7261   24.6537  H     
23   H        40.8383    0.1709   23.4520  H     
24   H        41.2443    0.6189   25.1243  H     
25   H        39.1393    0.0766   25.6811  H     
26   H        38.7584   -0.2883   22.7300  H     
27   H        36.8716    0.9673   22.6400  H     
28   H        35.3239   -0.2842   22.9569  H     
29   H        36.6961    1.1527   25.6802  H     
30   H        33.5260    4.3060   24.8915  H     
31   H        36.3455    5.1707   22.1488  H     
32   H        37.5713    3.3429   22.8630  H     
@<TRIPOS>BOND
     1    1    2 1
     2    3    2 1
     3    3    4 1
     4    3    9 1
     5    4    5 1
     6    4    6 1
     7    5   17 1
     8    6    7 1
     9    6    8 1
    10    8    9 1
    11    8   10 1
    12   10   11 1
    13   10   16 1
    14   11   12 2
    15   11   13 1
    16   13   14 1
    17   14   15 1
    18   14   21 2
    19   15   16 2
    20   17   18 1
    21   17   19 2
    22   17   20 1
    23    1   22 1
    24    2   23 1
    25    2   24 1
    26    3   25 1
    27    4   26 1
    28    6   27 1
    29    7   28 1
    30    8   29 1
    31   13   30 1
    32   15   31 1
    33   16   32 1
@<TRIPOS>PROPERTY_DATA
  Total_Score	| 3.8707
  Crash		| -2.2215
  Polar		| 6.4472
  FragIndex	| 1
  FragRMSD	| 0.954

