@<TRIPOS>MOLECULE
BindingDB_50233301
 33 34 0 0 0
SMALL
NO_CHARGES


@<TRIPOS>ATOM
1    O        40.8519    2.7815   24.4185  O     
2    C        40.6406    1.4614   23.9265  C     
3    C        39.4973    0.7466   24.6907  C     
4    C        38.7896   -0.3635   23.8620  C     
5    O        38.5465   -1.5245   24.6962  O     
6    C        37.4480    0.3002   23.5052  C     
7    O        36.3823   -0.6351   23.3471  O     
8    C        37.2171    1.2559   24.6975  C     
9    O        38.5190    1.7338   25.0577  O     
10   N        36.3219    2.3744   24.4270  N     
11   C        35.1768    2.5687   25.1198  C     
12   O        34.7702    1.8214   25.9987  O     
13   N        34.4128    3.6289   24.8754  N     
14   C        34.7399    4.5417   23.9272  C     
15   N        33.9424    5.6047   23.7315  N     
16   C        35.9028    4.3651   23.1955  C     
17   C        36.6691    3.2934   23.4706  C     
18   P        38.9244   -2.9326   24.1493  P     
19   O        37.8215   -3.9216   24.5726  O     
20   O        40.1762   -3.3742   24.7083  O     
21   O        38.9998   -2.9775   22.6117  O     
22   H        39.9732    3.2157   24.3842  H     
23   H        40.4040    1.5213   22.8617  H     
24   H        41.5700    0.9010   24.0458  H     
25   H        39.9174    0.3217   25.6071  H     
26   H        39.3536   -0.5902   22.9472  H     
27   H        37.5628    0.8536   22.5689  H     
28   H        35.6951   -0.1554   22.8397  H     
29   H        36.8703    0.6520   25.5456  H     
30   H        34.1755    6.2730   23.0681  H     
31   H        33.1418    5.7172   24.2676  H     
32   H        36.1724    5.0193   22.4966  H     
33   H        37.5167    3.1921   22.9594  H     
@<TRIPOS>BOND
     1    1    2 1
     2    3    2 1
     3    3    4 1
     4    3    9 1
     5    4    5 1
     6    4    6 1
     7    5   18 1
     8    6    7 1
     9    6    8 1
    10    8    9 1
    11    8   10 1
    12   10   11 1
    13   10   17 1
    14   11   12 2
    15   11   13 1
    16   13   14 2
    17   14   15 1
    18   14   16 1
    19   16   17 2
    20   18   19 1
    21   18   20 2
    22   18   21 1
    23    1   22 1
    24    2   23 1
    25    2   24 1
    26    3   25 1
    27    4   26 1
    28    6   27 1
    29    7   28 1
    30    8   29 1
    31   15   30 1
    32   15   31 1
    33   16   32 1
    34   17   33 1
@<TRIPOS>PROPERTY_DATA
  Total_Score	| 5.7489
  Crash		| -0.5653
  Polar		| 6.0745
  FragIndex	| 1
  FragRMSD	| 0.728

