@<TRIPOS>MOLECULE
BindingDB_50310540
 33 34 0 0 0
SMALL
NO_CHARGES


@<TRIPOS>ATOM
1    C        40.6876    1.7043   24.1360  C     
2    C        39.4498    0.9807   24.7482  C     
3    C        38.8457   -0.1604   23.8841  C     
4    C        37.4478    0.3624   23.5150  C     
5    C        37.1595    1.3598   24.6551  C     
6    O        38.4233    1.9594   24.9564  O     
7    N        36.2065    2.4095   24.3386  N     
8    C        35.0918    2.6053   25.0754  C     
9    O        34.7344    1.8739   25.9897  O     
10   N        34.3244    3.6683   24.8630  N     
11   C        34.6075    4.5609   23.8838  C     
12   C        35.7193    4.3664   23.0818  C     
13   C        36.4937    3.2955   23.3321  C     
14   P        42.4654    1.6235   26.0117  P     
15   O        41.4473    2.0758   26.9430  O     
16   O        41.9418    1.1509   24.6063  O     
17   O        38.7474   -1.3692   24.6426  O     
18   O        36.4510   -0.6643   23.4176  O     
19   N        33.8361    5.6522   23.7449  N     
20   O        43.4704    2.7785   25.8082  O     
21   O        43.2547    0.4623   26.6670  O     
22   H        40.6688    1.5860   23.0559  H     
23   H        40.6364    2.7908   24.3169  H     
24   H        39.7193    0.6070   25.7429  H     
25   H        39.4292   -0.3711   22.9883  H     
26   H        37.5052    0.8745   22.5474  H     
27   H        36.8617    0.7772   25.5381  H     
28   H        35.9521    5.0046   22.3555  H     
29   H        37.3212    3.1858   22.7894  H     
30   H        39.5360   -1.9072   24.3816  H     
31   H        35.7599   -0.2808   22.8239  H     
32   H        34.0492    6.3226   23.0695  H     
33   H        33.0754    5.7851   24.3365  H     
@<TRIPOS>BOND
     1    2    1 1
     2    1   16 1
     3    2    3 1
     4    2    6 1
     5    3    4 1
     6    3   17 1
     7    4    5 1
     8    4   18 1
     9    5    6 1
    10    5    7 1
    11    7    8 1
    12    7   13 1
    13    8    9 2
    14    8   10 1
    15   10   11 2
    16   11   12 1
    17   11   19 1
    18   12   13 2
    19   14   15 2
    20   14   16 1
    21   14   20 1
    22   14   21 1
    23    1   22 1
    24    1   23 1
    25    2   24 1
    26    3   25 1
    27    4   26 1
    28    5   27 1
    29   12   28 1
    30   13   29 1
    31   17   30 1
    32   18   31 1
    33   19   32 1
    34   19   33 1
@<TRIPOS>PROPERTY_DATA
  Total_Score	| 6.9473
  Crash		| -0.9261
  Polar		| 6.8972
  FragIndex	| 1
  FragRMSD	| 0.857

