@<TRIPOS>MOLECULE
BindingDB_35003
 43 46 0 0 0
SMALL
NO_CHARGES


@<TRIPOS>ATOM
1    C       -39.2349   -3.6327   -1.5043  C     
2    C       -40.5158   -3.1590   -1.4551  C     
3    N       -40.1416   -2.4510    0.7463  N     
4    C       -38.8586   -2.9096    0.7060  C     
5    N       -38.4380   -3.5214   -0.4375  N     
6    O       -38.8015   -4.1994   -2.4996  O     
7    C       -37.9688   -2.7888    1.8798  C     
8    S       -41.6572   -3.2325   -2.7292  S     
9    C       -42.7945   -2.5071   -1.6420  C     
10   C       -40.9522   -2.5928   -0.3165  C     
11   C       -44.1397   -2.2289   -1.9350  C     
12   C       -44.9627   -1.6801   -0.9297  C     
13   C       -44.4371   -1.4128    0.3532  C     
14   C       -43.0797   -1.6857    0.6327  C     
15   C       -42.2631   -2.2303   -0.3789  C     
16   Cl      -45.4342   -0.7681    1.5581  Cl    
17   N       -37.5828   -4.1405    2.3378  N     
18   C       -36.8712   -4.2550    3.6313  C     
19   C       -37.5771   -3.6926    4.8997  C     
20   C       -39.0584   -3.5775    4.8237  C     
21   C       -39.8613   -4.6875    4.4621  C     
22   C       -39.7082   -2.3616    5.1550  C     
23   C       -41.1089   -2.2492    5.0954  C     
24   C       -41.8858   -3.3475    4.6900  C     
25   C       -41.2661   -4.5704    4.3776  C     
26   O       -42.0354   -5.6200    3.9884  O     
27   H       -37.5447   -3.9056   -0.4687  H     
28   H       -37.0787   -2.2154    1.6037  H     
29   H       -38.4896   -2.2601    2.6780  H     
30   H       -44.5201   -2.4290   -2.8615  H     
31   H       -45.9452   -1.4858   -1.1385  H     
32   H       -42.6968   -1.5023    1.5637  H     
33   H       -38.4269   -4.7146    2.3902  H     
34   H       -36.9651   -4.5460    1.6218  H     
35   H       -36.7158   -5.3273    3.7901  H     
36   H       -35.8812   -3.8049    3.5350  H     
37   H       -37.3175   -4.3322    5.7490  H     
38   H       -37.1396   -2.7095    5.1113  H     
39   H       -39.4185   -5.5830    4.2421  H     
40   H       -39.1650   -1.5518    5.4535  H     
41   H       -41.5622   -1.3666    5.3444  H     
42   H       -42.9041   -3.2557    4.6339  H     
43   H       -41.4675   -6.4138    4.0565  H     
@<TRIPOS>BOND
     1    1    2 1
     2    1    5 1
     3    1    6 2
     4    2    8 1
     5    2   10 2
     6    3    4 2
     7    3   10 1
     8    4    5 1
     9    4    7 1
    10    7   17 1
    11    8    9 1
    12    9   11 2
    13    9   15 1
    14   10   15 1
    15   11   12 1
    16   12   13 2
    17   13   14 1
    18   13   16 1
    19   14   15 2
    20   17   18 1
    21   18   19 1
    22   19   20 1
    23   20   21 1
    24   20   22 2
    25   21   25 2
    26   22   23 1
    27   23   24 2
    28   24   25 1
    29   25   26 1
    30    5   27 1
    31    7   28 1
    32    7   29 1
    33   11   30 1
    34   12   31 1
    35   14   32 1
    36   17   33 1
    37   17   34 1
    38   18   35 1
    39   18   36 1
    40   19   37 1
    41   19   38 1
    42   21   39 1
    43   22   40 1
    44   23   41 1
    45   24   42 1
    46   26   43 1
@<TRIPOS>PROPERTY_DATA
  Total_Score	| 5.3392
  Crash		| -1.1073
  Polar		| 2.9778
  FragIndex	| 1
  FragRMSD	| 1.195

