@<TRIPOS>MOLECULE
BindingDB_34992
 29 31 0 0 0
SMALL
NO_CHARGES


@<TRIPOS>ATOM
1    C       -39.1078   -3.6320   -1.4568  C     
2    C       -40.3959   -3.1481   -1.4558  C     
3    N       -40.0833   -2.4659    0.7694  N     
4    C       -38.8165   -2.9588    0.7796  C     
5    N       -38.3614   -3.5662   -0.3492  N     
6    O       -38.6469   -4.1990   -2.4393  O     
7    C       -37.9646   -2.8135    1.9821  C     
8    S       -41.5324   -3.2536   -2.7415  S     
9    C       -42.6981   -2.5471   -1.6622  C     
10   C       -40.8609   -2.5842   -0.3273  C     
11   C       -44.0645   -2.3314   -1.9540  C     
12   C       -44.8966   -1.7583   -0.9756  C     
13   C       -44.3677   -1.4069    0.2890  C     
14   C       -43.0034   -1.6414    0.5736  C     
15   C       -42.1751   -2.2255   -0.4112  C     
16   Cl      -45.3789   -0.7092    1.4593  Cl    
17   N       -37.4298   -4.0671    2.5495  N     
18   C       -38.4232   -5.1127    2.8821  C     
19   H       -37.4786   -3.9636   -0.3375  H     
20   H       -37.1169   -2.1831    1.7135  H     
21   H       -38.5250   -2.2956    2.7671  H     
22   H       -44.4495   -2.5988   -2.8646  H     
23   H       -45.8852   -1.5890   -1.1863  H     
24   H       -42.6256   -1.4049    1.4937  H     
25   H       -36.7704   -4.4880    1.8919  H     
26   H       -36.9001   -3.8347    3.4032  H     
27   H       -39.3417   -4.6876    3.3068  H     
28   H       -37.9924   -5.8232    3.6230  H     
29   H       -38.6544   -5.6524    1.9668  H     
@<TRIPOS>BOND
     1    1    2 1
     2    1    5 1
     3    1    6 2
     4    2    8 1
     5    2   10 2
     6    3    4 2
     7    3   10 1
     8    4    5 1
     9    4    7 1
    10    7   17 1
    11    8    9 1
    12    9   11 2
    13    9   15 1
    14   10   15 1
    15   11   12 1
    16   12   13 2
    17   13   14 1
    18   13   16 1
    19   14   15 2
    20   17   18 1
    21    5   19 1
    22    7   20 1
    23    7   21 1
    24   11   22 1
    25   12   23 1
    26   14   24 1
    27   17   25 1
    28   17   26 1
    29   18   27 1
    30   18   28 1
    31   18   29 1
@<TRIPOS>PROPERTY_DATA
  Total_Score	| 4.8694
  Crash		| -0.8933
  Polar		| 1.9140
  FragIndex	| 1
  FragRMSD	| 1.293

