@<TRIPOS>MOLECULE
BindingDB_34988
 37 40 0 0 0
SMALL
NO_CHARGES


@<TRIPOS>ATOM
1    C       -39.1897   -3.6466   -1.3933  C     
2    C       -40.4831   -3.1913   -1.3906  C     
3    N       -40.2122   -2.5005    0.8276  N     
4    C       -38.9205   -2.9326    0.8318  C     
5    N       -38.4358   -3.5237   -0.2979  N     
6    O       -38.7131   -4.2063   -2.3688  O     
7    C       -38.0728   -2.7405    2.0262  C     
8    S       -41.5822   -3.2629   -2.7050  S     
9    C       -42.7716   -2.5688   -1.6513  C     
10   C       -40.9740   -2.6435   -0.2655  C     
11   C       -44.1120   -2.3009   -1.9823  C     
12   C       -44.9655   -1.7462   -1.0076  C     
13   C       -44.4764   -1.4570    0.2850  C     
14   C       -43.1275   -1.7219    0.6058  C     
15   C       -42.2828   -2.2839   -0.3739  C     
16   Cl      -45.5112   -0.7983    1.4521  Cl    
17   N       -37.3429   -3.9592    2.4867  N     
18   C       -38.1473   -5.1897    2.6958  C     
19   C       -37.2987   -6.0466    3.6532  C     
20   C       -36.7393   -4.9938    4.6195  C     
21   C       -36.5347   -3.7535    3.7267  C     
22   O       -36.2305   -6.7195    2.9786  O     
23   H       -37.5392   -3.8998   -0.2820  H     
24   H       -37.3330   -1.9787    1.7697  H     
25   H       -38.6828   -2.3434    2.8432  H     
26   H       -44.4644   -2.5086   -2.9177  H     
27   H       -45.9415   -1.5529   -1.2456  H     
28   H       -42.7687   -1.5169    1.5414  H     
29   H       -36.6735   -4.1937    1.7502  H     
30   H       -39.1169   -4.9626    3.1568  H     
31   H       -38.3141   -5.7136    1.7512  H     
32   H       -37.9088   -6.7885    4.1782  H     
33   H       -37.4805   -4.7803    5.3994  H     
34   H       -35.8079   -5.3194    5.0941  H     
35   H       -35.4815   -3.6676    3.4418  H     
36   H       -36.8097   -2.8536    4.2873  H     
37   H       -36.0714   -6.2161    2.1530  H     
@<TRIPOS>BOND
     1    1    2 1
     2    1    5 1
     3    1    6 2
     4    2    8 1
     5    2   10 2
     6    3    4 2
     7    3   10 1
     8    4    5 1
     9    4    7 1
    10    7   17 1
    11    8    9 1
    12    9   11 2
    13    9   15 1
    14   10   15 1
    15   11   12 1
    16   12   13 2
    17   13   14 1
    18   13   16 1
    19   14   15 2
    20   17   18 1
    21   17   21 1
    22   18   19 1
    23   19   20 1
    24   19   22 1
    25   20   21 1
    26    5   23 1
    27    7   24 1
    28    7   25 1
    29   11   26 1
    30   12   27 1
    31   14   28 1
    32   17   29 1
    33   18   30 1
    34   18   31 1
    35   19   32 1
    36   20   33 1
    37   20   34 1
    38   21   35 1
    39   21   36 1
    40   22   37 1
@<TRIPOS>PROPERTY_DATA
  Total_Score	| 6.3381
  Crash		| -1.1628
  Polar		| 3.3891
  FragIndex	| 1
  FragRMSD	| 0.389

