@<TRIPOS>MOLECULE
BindingDB_34991
 40 43 0 0 0
SMALL
NO_CHARGES


@<TRIPOS>ATOM
1    C       -39.0916   -3.5943   -1.2129  C     
2    C       -40.3839   -3.1643   -1.2380  C     
3    N       -40.2019   -2.5717    1.0210  N     
4    C       -38.9047   -2.9886    1.0559  C     
5    N       -38.3727   -3.4995   -0.0906  N     
6    O       -38.5585   -4.0933   -2.1912  O     
7    C       -38.0727   -2.8378    2.2743  C     
8    S       -41.4335   -3.2208   -2.5877  S     
9    C       -42.6652   -2.5629   -1.5647  C     
10   C       -40.9200   -2.6681   -0.1094  C     
11   C       -43.9896   -2.2871   -1.9491  C     
12   C       -44.8758   -1.7322   -1.0038  C     
13   C       -44.4407   -1.4618    0.3122  C     
14   C       -43.1109   -1.7454    0.6870  C     
15   C       -42.2252   -2.3015   -0.2625  C     
16   Cl      -45.5184   -0.8022    1.4373  Cl    
17   N       -37.3386   -4.0814    2.6850  N     
18   C       -36.2918   -3.8447    3.7359  C     
19   C       -36.8596   -3.7406    5.1784  C     
20   C       -37.7013   -4.9973    5.5244  C     
21   C       -38.8063   -5.2193    4.4615  C     
22   C       -38.2037   -5.2601    3.0343  C     
23   O       -38.2754   -4.8523    6.8258  O     
24   H       -37.4569   -3.8375   -0.0664  H     
25   H       -37.3488   -2.0583    2.0293  H     
26   H       -38.6850   -2.4708    3.0983  H     
27   H       -44.3016   -2.4818   -2.8988  H     
28   H       -45.8397   -1.5249   -1.2839  H     
29   H       -42.7873   -1.5443    1.6364  H     
30   H       -36.8058   -4.3751    1.8533  H     
31   H       -35.5796   -4.6722    3.7027  H     
32   H       -35.7162   -2.9386    3.5159  H     
33   H       -36.0385   -3.6472    5.8880  H     
34   H       -37.4855   -2.8486    5.2594  H     
35   H       -37.0365   -5.8717    5.5436  H     
36   H       -39.3165   -6.1598    4.6703  H     
37   H       -39.5451   -4.4169    4.5316  H     
38   H       -39.0153   -5.3684    2.3143  H     
39   H       -37.5875   -6.1609    2.9474  H     
40   H       -38.1155   -5.7144    7.2902  H     
@<TRIPOS>BOND
     1    1    2 1
     2    1    5 1
     3    1    6 2
     4    2    8 1
     5    2   10 2
     6    3    4 2
     7    3   10 1
     8    4    5 1
     9    4    7 1
    10    7   17 1
    11    8    9 1
    12    9   11 2
    13    9   15 1
    14   10   15 1
    15   11   12 1
    16   12   13 2
    17   13   14 1
    18   13   16 1
    19   14   15 2
    20   17   18 1
    21   17   22 1
    22   18   19 1
    23   19   20 1
    24   20   21 1
    25   20   23 1
    26   21   22 1
    27    5   24 1
    28    7   25 1
    29    7   26 1
    30   11   27 1
    31   12   28 1
    32   14   29 1
    33   17   30 1
    34   18   31 1
    35   18   32 1
    36   19   33 1
    37   19   34 1
    38   20   35 1
    39   21   36 1
    40   21   37 1
    41   22   38 1
    42   22   39 1
    43   23   40 1
@<TRIPOS>PROPERTY_DATA
  Total_Score	| 5.5739
  Crash		| -0.9151
  Polar		| 3.0196
  FragIndex	| 1
  FragRMSD	| 1.278

