@<TRIPOS>MOLECULE
BindingDB_34990
 40 43 0 0 0
SMALL
NO_CHARGES


@<TRIPOS>ATOM
1    C       -39.1403   -3.6271   -1.3253  C     
2    C       -40.4178   -3.1395   -1.3702  C     
3    N       -40.1054   -2.2116    0.7518  N     
4    C       -38.8127   -2.6518    0.7874  C     
5    N       -38.3657   -3.3839   -0.2668  N     
6    O       -38.6808   -4.3071   -2.2343  O     
7    C       -37.9281   -2.3450    1.9324  C     
8    S       -41.5220   -3.3316   -2.6695  S     
9    C       -42.7077   -2.5634   -1.6671  C     
10   C       -40.8901   -2.4732   -0.3047  C     
11   C       -44.0631   -2.3781   -1.9963  C     
12   C       -44.9273   -1.7929   -1.0507  C     
13   C       -44.4324   -1.3808    0.2057  C     
14   C       -43.0650   -1.5497    0.5186  C     
15   C       -42.2091   -2.1517   -0.4277  C     
16   Cl      -45.4871   -0.7072    1.3471  Cl    
17   N       -37.3102   -3.5410    2.5989  N     
18   C       -36.3082   -3.1377    3.6447  C     
19   C       -35.5785   -4.3512    4.2909  C     
20   C       -36.5835   -5.4206    4.7890  C     
21   C       -37.6328   -5.7680    3.7075  C     
22   C       -38.3219   -4.4921    3.1626  C     
23   O       -34.6432   -4.9173    3.3704  O     
24   H       -37.4749   -3.7721   -0.2192  H     
25   H       -37.1297   -1.7157    1.5305  H     
26   H       -38.4723   -1.7525    2.6759  H     
27   H       -44.4179   -2.6830   -2.9032  H     
28   H       -45.9174   -1.6729   -1.2829  H     
29   H       -42.7048   -1.2573    1.4312  H     
30   H       -36.7909   -4.0552    1.8783  H     
31   H       -35.5477   -2.4848    3.2014  H     
32   H       -36.8009   -2.5664    4.4389  H     
33   H       -34.9980   -4.0033    5.1481  H     
34   H       -36.0456   -6.3283    5.0743  H     
35   H       -37.0987   -5.0489    5.6754  H     
36   H       -37.1387   -6.2805    2.8788  H     
37   H       -38.3811   -6.4426    4.1292  H     
38   H       -38.9007   -4.0187    3.9622  H     
39   H       -39.0220   -4.8060    2.3825  H     
40   H       -35.1361   -5.0903    2.5428  H     
@<TRIPOS>BOND
     1    1    2 1
     2    1    5 1
     3    1    6 2
     4    2    8 1
     5    2   10 2
     6    3    4 2
     7    3   10 1
     8    4    5 1
     9    4    7 1
    10    7   17 1
    11    8    9 1
    12    9   11 2
    13    9   15 1
    14   10   15 1
    15   11   12 1
    16   12   13 2
    17   13   14 1
    18   13   16 1
    19   14   15 2
    20   17   18 1
    21   17   22 1
    22   18   19 1
    23   19   20 1
    24   19   23 1
    25   20   21 1
    26   21   22 1
    27    5   24 1
    28    7   25 1
    29    7   26 1
    30   11   27 1
    31   12   28 1
    32   14   29 1
    33   17   30 1
    34   18   31 1
    35   18   32 1
    36   19   33 1
    37   20   34 1
    38   20   35 1
    39   21   36 1
    40   21   37 1
    41   22   38 1
    42   22   39 1
    43   23   40 1
@<TRIPOS>PROPERTY_DATA
  Total_Score	| 5.7708
  Crash		| -1.1260
  Polar		| 3.1200
  FragIndex	| 1
  FragRMSD	| 1.276

