@<TRIPOS>MOLECULE
BindingDB_34985
 39 42 0 0 0
SMALL
NO_CHARGES


@<TRIPOS>ATOM
1    C       -39.1218   -3.6600   -1.2660  C     
2    C       -40.4308   -3.2393   -1.3276  C     
3    N       -40.3902   -2.8715    0.9913  N     
4    C       -39.1051   -3.3052    1.0652  C     
5    N       -38.4880   -3.7084   -0.0858  N     
6    O       -38.5172   -3.9965   -2.2758  O     
7    C       -38.4181   -3.2477    2.3708  C     
8    N       -37.2436   -4.1715    2.5391  N     
9    S       -41.4439   -3.1647   -2.7230  S     
10   C       -42.7030   -2.5641   -1.6902  C     
11   C       -41.0291   -2.8404   -0.1867  C     
12   C       -44.0105   -2.2152   -2.0806  C     
13   C       -44.9084   -1.7099   -1.1185  C     
14   C       -44.4997   -1.5538    0.2304  C     
15   C       -43.1900   -1.9169    0.6126  C     
16   C       -42.3070   -2.4309   -0.3587  C     
17   Cl      -45.5596   -0.9204    1.3862  Cl    
18   C       -37.5964   -5.6138    2.7659  C     
19   C       -37.9477   -6.0022    4.2303  C     
20   C       -36.8653   -5.4830    5.1979  C     
21   C       -36.6181   -3.9679    5.0082  C     
22   C       -36.2302   -3.6780    3.5366  C     
23   H       -37.5686   -4.0150   -0.0433  H     
24   H       -38.1052   -2.1944    2.4793  H     
25   H       -39.1324   -3.4294    3.1829  H     
26   H       -36.7387   -4.1723    1.6467  H     
27   H       -44.3075   -2.3133   -3.0548  H     
28   H       -45.8594   -1.4501   -1.3923  H     
29   H       -42.8828   -1.8122    1.5821  H     
30   H       -38.4179   -5.9069    2.1113  H     
31   H       -36.7240   -6.1977    2.4595  H     
32   H       -38.9248   -5.5973    4.5065  H     
33   H       -38.0040   -7.0891    4.3064  H     
34   H       -37.1700   -5.6791    6.2314  H     
35   H       -35.9348   -6.0257    5.0140  H     
36   H       -37.5251   -3.4062    5.2598  H     
37   H       -35.8167   -3.6421    5.6776  H     
38   H       -35.2745   -4.1801    3.3167  H     
39   H       -36.0398   -2.6034    3.4168  H     
@<TRIPOS>BOND
     1    1    2 1
     2    1    5 1
     3    1    6 2
     4    2    9 1
     5    2   11 2
     6    3    4 2
     7    3   11 1
     8    4    5 1
     9    4    7 1
    10    7    8 1
    11    8   18 1
    12    8   22 1
    13    9   10 1
    14   10   12 2
    15   10   16 1
    16   11   16 1
    17   12   13 1
    18   13   14 2
    19   14   15 1
    20   14   17 1
    21   15   16 2
    22   18   19 1
    23   19   20 1
    24   20   21 1
    25   21   22 1
    26    5   23 1
    27    7   24 1
    28    7   25 1
    29    8   26 1
    30   12   27 1
    31   13   28 1
    32   15   29 1
    33   18   30 1
    34   18   31 1
    35   19   32 1
    36   19   33 1
    37   20   34 1
    38   20   35 1
    39   21   36 1
    40   21   37 1
    41   22   38 1
    42   22   39 1
@<TRIPOS>PROPERTY_DATA
  Total_Score	| 5.4542
  Crash		| -0.9767
  Polar		| 1.6123
  FragIndex	| 1
  FragRMSD	| 1.380

