@<TRIPOS>MOLECULE
BindingDB_34986
 39 42 0 0 0
SMALL
NO_CHARGES


@<TRIPOS>ATOM
1    C       -39.1339   -3.5503   -1.5427  C     
2    C       -40.4191   -3.0755   -1.5019  C     
3    N       -40.0186   -2.2404    0.6459  N     
4    C       -38.7359   -2.6985    0.6137  C     
5    N       -38.3239   -3.3824   -0.4934  N     
6    O       -38.7285   -4.1967   -2.4974  O     
7    C       -37.8465   -2.5261    1.7808  C     
8    N       -37.5137   -3.7995    2.5033  N     
9    S       -41.5999   -3.2389   -2.7340  S     
10   C       -42.7328   -2.5278   -1.6321  C     
11   C       -40.8438   -2.4571   -0.3835  C     
12   C       -44.1046   -2.3516   -1.8724  C     
13   C       -44.9168   -1.8040   -0.8575  C     
14   C       -44.3555   -1.4424    0.3867  C     
15   C       -42.9736   -1.6164    0.6152  C     
16   C       -42.1684   -2.1574   -0.4102  C     
17   Cl      -45.3457   -0.8166    1.6097  Cl    
18   C       -36.7336   -3.5381    3.7543  C     
19   C       -36.3707   -4.8466    4.5046  C     
20   C       -37.6300   -5.7085    4.7475  C     
21   N       -38.3701   -5.9027    3.4876  N     
22   C       -38.7153   -4.6407    2.8025  C     
23   H       -37.4475   -3.8009   -0.4892  H     
24   H       -36.9208   -2.0672    1.4256  H     
25   H       -38.3123   -1.8203    2.4716  H     
26   H       -36.9089   -4.3537    1.8828  H     
27   H       -44.5131   -2.6291   -2.7662  H     
28   H       -45.9195   -1.6870   -1.0259  H     
29   H       -42.5632   -1.3687    1.5166  H     
30   H       -35.8012   -3.0198    3.5032  H     
31   H       -37.3034   -2.8905    4.4307  H     
32   H       -35.6507   -5.4131    3.9080  H     
33   H       -35.9048   -4.6036    5.4615  H     
34   H       -37.3408   -6.6850    5.1402  H     
35   H       -38.2801   -5.2269    5.4815  H     
36   H       -37.8036   -6.4689    2.8544  H     
37   H       -39.2316   -6.4153    3.6843  H     
38   H       -39.4409   -4.0893    3.4083  H     
39   H       -39.2015   -4.9364    1.8753  H     
@<TRIPOS>BOND
     1    1    2 1
     2    1    5 1
     3    1    6 2
     4    2    9 1
     5    2   11 2
     6    3    4 2
     7    3   11 1
     8    4    5 1
     9    4    7 1
    10    7    8 1
    11    8   18 1
    12    8   22 1
    13    9   10 1
    14   10   12 2
    15   10   16 1
    16   11   16 1
    17   12   13 1
    18   13   14 2
    19   14   15 1
    20   14   17 1
    21   15   16 2
    22   18   19 1
    23   19   20 1
    24   20   21 1
    25   21   22 1
    26    5   23 1
    27    7   24 1
    28    7   25 1
    29    8   26 1
    30   12   27 1
    31   13   28 1
    32   15   29 1
    33   18   30 1
    34   18   31 1
    35   19   32 1
    36   19   33 1
    37   20   34 1
    38   20   35 1
    39   21   36 1
    40   21   37 1
    41   22   38 1
    42   22   39 1
@<TRIPOS>PROPERTY_DATA
  Total_Score	| 6.7193
  Crash		| -1.6335
  Polar		| 4.4530
  FragIndex	| 1
  FragRMSD	| 0.992

