@<TRIPOS>MOLECULE
BindingDB_34995
 35 38 0 0 0
SMALL
NO_CHARGES


@<TRIPOS>ATOM
1    C       -39.6151   -3.6844   -2.0326  C     
2    C       -40.8298   -3.0838   -1.8395  C     
3    N       -40.1304   -2.3994    0.2860  N     
4    C       -38.9088   -2.9713    0.0974  C     
5    N       -38.6947   -3.6511   -1.0671  N     
6    O       -39.3743   -4.3324   -3.0425  O     
7    C       -37.8459   -2.8390    1.1104  C     
8    S       -42.1276   -3.0655   -2.9576  S     
9    C       -43.0948   -2.3642   -1.7021  C     
10   C       -41.0813   -2.4963   -0.6568  C     
11   C       -44.4765   -2.1097   -1.7757  C     
12   C       -45.1487   -1.6161   -0.6403  C     
13   C       -44.4385   -1.3760    0.5572  C     
14   C       -43.0458   -1.6082    0.6151  C     
15   C       -42.3825   -2.1091   -0.5258  C     
16   Cl      -45.2742   -0.8563    1.9346  Cl    
17   N       -37.7089   -4.0058    1.9201  N     
18   C       -38.3929   -4.3104    3.0530  C     
19   C       -39.8085   -4.3037    3.1753  C     
20   C       -37.6215   -4.6448    4.1894  C     
21   C       -38.2378   -4.9708    5.4084  C     
22   C       -39.6442   -4.9941    5.5063  C     
23   C       -40.4271   -4.6440    4.3914  C     
24   H       -37.8628   -4.1378   -1.1944  H     
25   H       -36.9013   -2.6725    0.5856  H     
26   H       -38.0145   -1.9667    1.7501  H     
27   H       -44.9939   -2.3068   -2.6338  H     
28   H       -46.1585   -1.4520   -0.6857  H     
29   H       -42.5291   -1.4471    1.4840  H     
30   H       -37.0273   -4.6398    1.6381  H     
31   H       -40.4041   -4.0478    2.3863  H     
32   H       -36.5947   -4.6462    4.1384  H     
33   H       -37.6607   -5.2152    6.2188  H     
34   H       -40.0932   -5.2461    6.3894  H     
35   H       -41.4468   -4.6477    4.4644  H     
@<TRIPOS>BOND
     1    1    2 1
     2    1    5 1
     3    1    6 2
     4    2    8 1
     5    2   10 2
     6    3    4 2
     7    3   10 1
     8    4    5 1
     9    4    7 1
    10    7   17 1
    11    8    9 1
    12    9   11 2
    13    9   15 1
    14   10   15 1
    15   11   12 1
    16   12   13 2
    17   13   14 1
    18   13   16 1
    19   14   15 2
    20   17   18 1
    21   18   19 1
    22   18   20 2
    23   19   23 2
    24   20   21 1
    25   21   22 2
    26   22   23 1
    27    5   24 1
    28    7   25 1
    29    7   26 1
    30   11   27 1
    31   12   28 1
    32   14   29 1
    33   17   30 1
    34   19   31 1
    35   20   32 1
    36   21   33 1
    37   22   34 1
    38   23   35 1
@<TRIPOS>PROPERTY_DATA
  Total_Score	| 4.6123
  Crash		| -1.1027
  Polar		| 1.8000
  FragIndex	| 1
  FragRMSD	| 1.133

