@<TRIPOS>MOLECULE
BindingDB_34994
 38 40 0 0 0
SMALL
NO_CHARGES


@<TRIPOS>ATOM
1    C       -39.4068   -3.6057   -1.7703  C     
2    C       -40.6433   -3.0336   -1.6516  C     
3    N       -40.1082   -2.4178    0.5480  N     
4    C       -38.8475   -2.9444    0.3957  C     
5    N       -38.5521   -3.5919   -0.7628  N     
6    O       -39.0721   -4.1971   -2.7943  O     
7    C       -37.8440   -2.8860    1.5104  C     
8    S       -41.8922   -3.1008   -2.8245  S     
9    C       -42.9563   -2.4225   -1.6445  C     
10   C       -40.9934   -2.4825   -0.4700  C     
11   C       -44.3358   -2.2081   -1.8048  C     
12   C       -45.0918   -1.7076   -0.7243  C     
13   C       -44.4562   -1.4257    0.5030  C     
14   C       -43.0670   -1.6341    0.6523  C     
15   C       -42.3186   -2.1374   -0.4278  C     
16   Cl      -45.3608   -0.8464    1.8168  Cl    
17   C       -36.7611   -1.7621    1.3592  C     
18   C       -35.2623   -2.1963    1.4395  C     
19   N       -34.8064   -3.1801    2.5088  N     
20   C       -33.3057   -3.2828    2.5313  C     
21   C       -35.4223   -2.9654    3.8534  C     
22   H       -37.7237   -4.0699   -0.8326  H     
23   H       -38.4002   -2.7345    2.4319  H     
24   H       -37.3624   -3.8621    1.5902  H     
25   H       -44.7912   -2.4282   -2.6916  H     
26   H       -46.0901   -1.5557   -0.8409  H     
27   H       -42.6117   -1.4365    1.5494  H     
28   H       -36.9039   -1.2294    0.3889  H     
29   H       -36.9449   -1.0087    2.1451  H     
30   H       -35.0370   -2.6812    0.4669  H     
31   H       -34.6617   -1.2553    1.4829  H     
32   H       -35.1209   -4.0902    2.1432  H     
33   H       -32.9059   -3.5240    1.5189  H     
34   H       -32.9835   -4.0959    3.1899  H     
35   H       -32.8316   -2.3417    2.8683  H     
36   H       -35.2524   -1.9465    4.2090  H     
37   H       -35.0283   -3.6887    4.5721  H     
38   H       -36.5186   -3.1627    3.7598  H     
@<TRIPOS>BOND
     1    1    2 1
     2    1    5 1
     3    1    6 2
     4    2    8 1
     5    2   10 2
     6    3    4 2
     7    3   10 1
     8    4    5 1
     9    4    7 1
    10    7   17 1
    11    8    9 1
    12    9   11 2
    13    9   15 1
    14   10   15 1
    15   11   12 1
    16   12   13 2
    17   13   14 1
    18   13   16 1
    19   14   15 2
    20   17   18 1
    21   18   19 1
    22   19   20 1
    23   19   21 1
    24    5   22 1
    25    7   23 1
    26    7   24 1
    27   11   25 1
    28   12   26 1
    29   14   27 1
    30   17   28 1
    31   17   29 1
    32   18   30 1
    33   18   31 1
    34   19   32 1
    35   20   33 1
    36   20   34 1
    37   20   35 1
    38   21   36 1
    39   21   37 1
    40   21   38 1
@<TRIPOS>PROPERTY_DATA
  Total_Score	| 5.3724
  Crash		| -1.0307
  Polar		| 2.2562
  FragIndex	| 1
  FragRMSD	| 0.195

