@<TRIPOS>MOLECULE
BindingDB_35006
 32 34 0 0 0
SMALL
NO_CHARGES


@<TRIPOS>ATOM
1    C       -39.1460   -3.6969   -1.2432  C     
2    C       -40.4284   -3.2263   -1.2889  C     
3    N       -40.2291   -2.5754    0.9524  N     
4    C       -38.9428   -3.0293    1.0027  C     
5    N       -38.4273   -3.6014   -0.1244  N     
6    O       -38.6487   -4.2652   -2.2126  O     
7    C       -38.1844   -2.9772    2.2688  C     
8    S       -41.4620   -3.2307   -2.6609  S     
9    C       -42.6719   -2.5160   -1.6498  C     
10   C       -40.9463   -2.6772   -0.1767  C     
11   C       -43.9795   -2.1762   -2.0472  C     
12   C       -44.8580   -1.6093   -1.1034  C     
13   C       -44.4321   -1.3961    0.2238  C     
14   C       -43.1199   -1.7290    0.6143  C     
15   C       -42.2422   -2.2830   -0.3389  C     
16   N       -36.6926   -2.9117    2.1496  N     
17   C       -36.2143   -1.6924    1.4340  C     
18   C       -36.0165   -3.0551    3.4727  C     
19   H       -37.5354   -3.9881   -0.0984  H     
20   H       -38.5393   -2.1135    2.8409  H     
21   H       -38.4664   -3.8708    2.8247  H     
22   H       -44.2873   -2.3431   -3.0035  H     
23   H       -45.8125   -1.3655   -1.3772  H     
24   H       -45.0742   -0.9957    0.9077  H     
25   H       -42.8094   -1.5690    1.5758  H     
26   H       -36.3980   -3.7177    1.5973  H     
27   H       -36.6929   -1.6225    0.4550  H     
28   H       -35.1306   -1.7415    1.2718  H     
29   H       -36.4449   -0.7868    2.0047  H     
30   H       -36.2562   -2.2195    4.1330  H     
31   H       -34.9341   -3.0941    3.3439  H     
32   H       -36.3185   -3.9827    3.9644  H     
@<TRIPOS>BOND
     1    1    2 1
     2    1    5 1
     3    1    6 2
     4    2    8 1
     5    2   10 2
     6    3    4 2
     7    3   10 1
     8    4    5 1
     9    4    7 1
    10    7   16 1
    11    8    9 1
    12    9   11 2
    13    9   15 1
    14   10   15 1
    15   11   12 1
    16   12   13 2
    17   13   14 1
    18   14   15 2
    19   16   17 1
    20   16   18 1
    21    5   19 1
    22    7   20 1
    23    7   21 1
    24   11   22 1
    25   12   23 1
    26   13   24 1
    27   14   25 1
    28   16   26 1
    29   17   27 1
    30   17   28 1
    31   17   29 1
    32   18   30 1
    33   18   31 1
    34   18   32 1
@<TRIPOS>PROPERTY_DATA
  Total_Score	| 4.9577
  Crash		| -0.5720
  Polar		| 1.9141
  FragIndex	| 1
  FragRMSD	| 1.374

