@<TRIPOS>MOLECULE
BindingDB_34989
 37 40 0 0 0
SMALL
NO_CHARGES


@<TRIPOS>ATOM
1    C       -39.2557   -3.6233   -1.5962  C     
2    C       -40.5447   -3.1533   -1.4988  C     
3    N       -40.1101   -2.4668    0.7005  N     
4    C       -38.8353   -2.9412    0.6138  C     
5    N       -38.4359   -3.5395   -0.5412  N     
6    O       -38.8595   -4.2052   -2.5959  O     
7    C       -37.8979   -2.8018    1.7533  C     
8    S       -41.7168   -3.2054   -2.7383  S     
9    C       -42.8342   -2.5262   -1.6044  C     
10   C       -40.9488   -2.6084   -0.3408  C     
11   C       -44.1993   -2.2666   -1.8394  C     
12   C       -44.9875   -1.7304   -0.8063  C     
13   C       -44.4214   -1.4581    0.4575  C     
14   C       -43.0490   -1.7215    0.6864  C     
15   C       -42.2627   -2.2578   -0.3534  C     
16   Cl      -45.3753   -0.8158    1.6959  Cl    
17   N       -37.4893   -4.1144    2.3443  N     
18   C       -38.6041   -4.9790    2.8315  C     
19   C       -38.2515   -5.4324    4.2601  C     
20   C       -37.2409   -4.3871    4.7410  C     
21   C       -36.5018   -3.9972    3.4551  C     
22   O       -39.3822   -5.4774    5.1261  O     
23   H       -37.5626   -3.9645   -0.5706  H     
24   H       -37.0090   -2.2827    1.3725  H     
25   H       -38.3435   -2.1678    2.5290  H     
26   H       -44.6093   -2.4672   -2.7511  H     
27   H       -45.9723   -1.5185   -0.9830  H     
28   H       -42.6331   -1.5375    1.6059  H     
29   H       -37.0066   -4.6365    1.6126  H     
30   H       -39.5636   -4.4546    2.8436  H     
31   H       -38.7017   -5.8436    2.1727  H     
32   H       -37.7817   -6.4206    4.2348  H     
33   H       -37.7564   -3.5152    5.1505  H     
34   H       -36.5636   -4.7983    5.4951  H     
35   H       -35.6930   -4.7108    3.2708  H     
36   H       -36.0540   -3.0044    3.5571  H     
37   H       -39.8639   -6.2896    4.8666  H     
@<TRIPOS>BOND
     1    1    2 1
     2    1    5 1
     3    1    6 2
     4    2    8 1
     5    2   10 2
     6    3    4 2
     7    3   10 1
     8    4    5 1
     9    4    7 1
    10    7   17 1
    11    8    9 1
    12    9   11 2
    13    9   15 1
    14   10   15 1
    15   11   12 1
    16   12   13 2
    17   13   14 1
    18   13   16 1
    19   14   15 2
    20   17   18 1
    21   17   21 1
    22   18   19 1
    23   19   20 1
    24   19   22 1
    25   20   21 1
    26    5   23 1
    27    7   24 1
    28    7   25 1
    29   11   26 1
    30   12   27 1
    31   14   28 1
    32   17   29 1
    33   18   30 1
    34   18   31 1
    35   19   32 1
    36   20   33 1
    37   20   34 1
    38   21   35 1
    39   21   36 1
    40   22   37 1
@<TRIPOS>PROPERTY_DATA
  Total_Score	| 6.5091
  Crash		| -0.9589
  Polar		| 3.3294
  FragIndex	| 1
  FragRMSD	| 0.227

