@<TRIPOS>MOLECULE
BindingDB_34987
 37 40 0 0 0
SMALL
NO_CHARGES


@<TRIPOS>ATOM
1    C       -39.0766   -3.6297   -1.1973  C     
2    C       -40.3664   -3.1753   -1.2252  C     
3    N       -40.2268   -2.6896    1.0559  N     
4    C       -38.9432   -3.1444    1.1081  C     
5    N       -38.4051   -3.6440   -0.0515  N     
6    O       -38.5133   -4.0244   -2.2079  O     
7    C       -38.1713   -3.0924    2.3683  C     
8    N       -36.6819   -2.9706    2.2251  N     
9    S       -41.3816   -3.1470   -2.6072  S     
10   C       -42.6316   -2.5137   -1.5876  C     
11   C       -40.9276   -2.7298   -0.0907  C     
12   C       -43.9359   -2.1823   -1.9925  C     
13   C       -44.8470   -1.6786   -1.0387  C     
14   C       -44.4430   -1.5044    0.3003  C     
15   C       -43.1288   -1.8374    0.6966  C     
16   C       -42.2268   -2.3454   -0.2574  C     
17   Cl      -45.5327   -0.8841    1.4397  Cl    
18   C       -36.2458   -1.7059    1.5523  C     
19   C       -34.7084   -1.7234    1.3491  C     
20   O       -34.0327   -1.9221    2.6075  O     
21   C       -34.4262   -3.1328    3.2855  C     
22   C       -35.9593   -3.1616    3.5204  C     
23   H       -37.5049   -4.0064   -0.0220  H     
24   H       -38.5402   -2.2598    2.9828  H     
25   H       -38.4105   -4.0165    2.9037  H     
26   H       -36.3748   -3.7453    1.6261  H     
27   H       -44.2238   -2.2987   -2.9671  H     
28   H       -45.7954   -1.4327   -1.3310  H     
29   H       -42.8323   -1.7129    1.6688  H     
30   H       -36.7168   -1.6024    0.5721  H     
31   H       -36.5245   -0.8349    2.1521  H     
32   H       -34.4343   -2.5098    0.6402  H     
33   H       -34.3875   -0.7633    0.9382  H     
34   H       -34.1243   -4.0041    2.7005  H     
35   H       -33.9058   -3.1723    4.2434  H     
36   H       -36.2271   -2.3722    4.2306  H     
37   H       -36.2172   -4.1262    3.9657  H     
@<TRIPOS>BOND
     1    1    2 1
     2    1    5 1
     3    1    6 2
     4    2    9 1
     5    2   11 2
     6    3    4 2
     7    3   11 1
     8    4    5 1
     9    4    7 1
    10    7    8 1
    11    8   18 1
    12    8   22 1
    13    9   10 1
    14   10   12 2
    15   10   16 1
    16   11   16 1
    17   12   13 1
    18   13   14 2
    19   14   15 1
    20   14   17 1
    21   15   16 2
    22   18   19 1
    23   19   20 1
    24   20   21 1
    25   21   22 1
    26    5   23 1
    27    7   24 1
    28    7   25 1
    29    8   26 1
    30   12   27 1
    31   13   28 1
    32   15   29 1
    33   18   30 1
    34   18   31 1
    35   19   32 1
    36   19   33 1
    37   21   34 1
    38   21   35 1
    39   22   36 1
    40   22   37 1
@<TRIPOS>PROPERTY_DATA
  Total_Score	| 5.7773
  Crash		| -0.6291
  Polar		| 2.0218
  FragIndex	| 1
  FragRMSD	| 0.573

