@<TRIPOS>MOLECULE
BindingDB_34998
 36 39 0 0 0
SMALL
NO_CHARGES


@<TRIPOS>ATOM
1    C       -39.1582   -3.6055   -1.4778  C     
2    C       -40.4419   -3.1374   -1.4415  C     
3    N       -40.0320   -2.2778    0.7008  N     
4    C       -38.7447   -2.7218    0.6642  C     
5    N       -38.3480   -3.4219   -0.4335  N     
6    O       -38.7400   -4.2407   -2.4367  O     
7    C       -37.8011   -2.4572    1.7619  C     
8    S       -41.6073   -3.2955   -2.6882  S     
9    C       -42.7411   -2.5609   -1.6047  C     
10   C       -40.8618   -2.5102   -0.3299  C     
11   C       -44.1089   -2.3631   -1.8606  C     
12   C       -44.9199   -1.7935   -0.8584  C     
13   C       -44.3621   -1.4202    0.3846  C     
14   C       -42.9852   -1.6155    0.6285  C     
15   C       -42.1825   -2.1885   -0.3783  C     
16   Cl      -45.3520   -0.7573    1.5857  Cl    
17   N       -37.3676   -3.6799    2.3486  N     
18   C       -37.8033   -4.0807    3.5613  C     
19   C       -37.0716   -3.7404    4.7146  C     
20   C       -38.9802   -4.8521    3.6814  C     
21   C       -39.4286   -5.2652    4.9518  C     
22   C       -38.6689   -4.9571    6.1003  C     
23   C       -37.4941   -4.1902    5.9754  C     
24   O       -39.0910   -5.4002    7.3155  O     
25   H       -37.4629   -3.8207   -0.4395  H     
26   H       -36.9339   -1.9271    1.3656  H     
27   H       -38.2777   -1.7959    2.5030  H     
28   H       -44.5111   -2.6395   -2.7563  H     
29   H       -45.9167   -1.6594   -1.0373  H     
30   H       -42.5754   -1.3635    1.5325  H     
31   H       -37.0303   -4.3756    1.7337  H     
32   H       -36.2123   -3.1912    4.6312  H     
33   H       -39.5303   -5.0843    2.8502  H     
34   H       -40.3015   -5.7866    5.0416  H     
35   H       -36.9548   -3.9535    6.8103  H     
36   H       -38.3872   -6.0034    7.6400  H     
@<TRIPOS>BOND
     1    1    2 1
     2    1    5 1
     3    1    6 2
     4    2    8 1
     5    2   10 2
     6    3    4 2
     7    3   10 1
     8    4    5 1
     9    4    7 1
    10    7   17 1
    11    8    9 1
    12    9   11 2
    13    9   15 1
    14   10   15 1
    15   11   12 1
    16   12   13 2
    17   13   14 1
    18   13   16 1
    19   14   15 2
    20   17   18 1
    21   18   19 1
    22   18   20 2
    23   19   23 2
    24   20   21 1
    25   21   22 2
    26   22   23 1
    27   22   24 1
    28    5   25 1
    29    7   26 1
    30    7   27 1
    31   11   28 1
    32   12   29 1
    33   14   30 1
    34   17   31 1
    35   19   32 1
    36   20   33 1
    37   21   34 1
    38   23   35 1
    39   24   36 1
@<TRIPOS>PROPERTY_DATA
  Total_Score	| 5.1078
  Crash		| -1.1205
  Polar		| 2.6409
  FragIndex	| 1
  FragRMSD	| 1.259

