@<TRIPOS>MOLECULE
BindingDB_35047
 47 51 0 0 0
SMALL
NO_CHARGES


@<TRIPOS>ATOM
1    C       -39.3428   -3.2595   -1.6485  C     
2    C       -40.6642   -2.9687   -1.4640  C     
3    N       -40.1792   -2.2821    0.7175  N     
4    C       -38.8623   -2.5630    0.5424  C     
5    N       -38.4740   -3.0744   -0.6552  N     
6    O       -38.9272   -3.7048   -2.7074  O     
7    C       -37.9036   -2.3840    1.6474  C     
8    S       -41.9137   -3.1839   -2.6143  S     
9    C       -43.0205   -2.6226   -1.4035  C     
10   C       -41.0563   -2.4880   -0.2724  C     
11   C       -44.4116   -2.5050   -1.5533  C     
12   C       -45.1815   -2.0412   -0.4684  C     
13   C       -44.5698   -1.6979    0.7651  C     
14   C       -43.1640   -1.8225    0.8912  C     
15   C       -42.4003   -2.2842   -0.2001  C     
16   N       -37.4240   -3.6837    2.2064  N     
17   C       -45.3566   -1.2438    1.8618  C     
18   C       -38.4779   -4.6351    2.6696  C     
19   C       -38.1090   -5.0838    4.0934  C     
20   C       -36.6095   -4.7882    4.1911  C     
21   C       -36.4512   -3.5324    3.3219  C     
22   O       -38.4131   -6.4531    4.3383  O     
23   C       -46.3152   -0.2179    1.6863  C     
24   C       -47.0941    0.2323    2.7672  C     
25   C       -46.9354   -0.3509    4.0357  C     
26   C       -45.9909   -1.3730    4.2280  C     
27   C       -45.2028   -1.8141    3.1475  C     
28   H       -37.5431   -3.2951   -0.7914  H     
29   H       -37.0545   -1.8139    1.2631  H     
30   H       -38.3669   -1.7903    2.4446  H     
31   H       -44.8656   -2.7687   -2.4284  H     
32   H       -46.1977   -1.9789   -0.5794  H     
33   H       -42.6942   -1.5738    1.7664  H     
34   H       -36.9085   -4.1663    1.4602  H     
35   H       -39.4840   -4.2123    2.6651  H     
36   H       -38.4708   -5.4911    1.9843  H     
37   H       -38.6494   -4.4731    4.8222  H     
38   H       -36.2980   -4.6145    5.2248  H     
39   H       -36.0265   -5.6147    3.7714  H     
40   H       -35.4318   -3.4548    2.9370  H     
41   H       -36.6627   -2.6504    3.9372  H     
42   H       -38.1661   -6.9329    3.5146  H     
43   H       -46.4404    0.2214    0.7730  H     
44   H       -47.7770    0.9790    2.6293  H     
45   H       -47.5058   -0.0296    4.8210  H     
46   H       -45.8761   -1.8002    5.1487  H     
47   H       -44.5277   -2.5676    3.3068  H     
@<TRIPOS>BOND
     1    1    2 1
     2    1    5 1
     3    1    6 2
     4    2    8 1
     5    2   10 2
     6    3    4 2
     7    3   10 1
     8    4    5 1
     9    4    7 1
    10    7   16 1
    11    8    9 1
    12    9   11 2
    13    9   15 1
    14   10   15 1
    15   11   12 1
    16   12   13 2
    17   13   14 1
    18   13   17 1
    19   14   15 2
    20   16   18 1
    21   16   21 1
    22   17   23 2
    23   17   27 1
    24   18   19 1
    25   19   20 1
    26   19   22 1
    27   20   21 1
    28   23   24 1
    29   24   25 2
    30   25   26 1
    31   26   27 2
    32    5   28 1
    33    7   29 1
    34    7   30 1
    35   11   31 1
    36   12   32 1
    37   14   33 1
    38   16   34 1
    39   18   35 1
    40   18   36 1
    41   19   37 1
    42   20   38 1
    43   20   39 1
    44   21   40 1
    45   21   41 1
    46   22   42 1
    47   23   43 1
    48   24   44 1
    49   25   45 1
    50   26   46 1
    51   27   47 1
@<TRIPOS>PROPERTY_DATA
  Total_Score	| 6.5976
  Crash		| -2.0938
  Polar		| 2.9282
  FragIndex	| 1
  FragRMSD	| 1.254

