@<TRIPOS>MOLECULE
BindingDB_50384129
 56 60 0 0 0
SMALL
NO_CHARGES


@<TRIPOS>ATOM
1    N        23.9144   29.6842   58.6687  N     
2    C        23.6818   28.4572   59.2495  C     
3    C        22.8500   27.5661   58.6709  C     
4    C        23.2736   30.0267   57.5189  C     
5    C        22.3765   29.1389   56.9657  C     
6    C        22.2117   27.9385   57.5238  C     
7    N        21.3488   27.3126   56.8380  N     
8    N        20.9873   28.0548   55.9340  N     
9    N        21.5560   29.1610   55.9579  N     
10   O        23.5267   31.0649   56.9228  O     
11   C        21.0968   30.2879   55.2330  C     
12   C        20.2501   31.1690   56.1020  C     
13   C        18.9482   30.7613   56.5016  C     
14   C        18.1581   31.5607   57.3456  C     
15   C        20.7407   32.4121   56.5803  C     
16   C        19.9718   33.2099   57.4534  C     
17   C        18.6713   32.7753   57.8341  C     
18   N        17.9666   33.5388   58.7125  N     
19   C        18.4431   34.6693   59.2142  C     
20   C        19.7027   35.1248   58.8768  C     
21   C        20.4469   34.4018   58.0093  C     
22   C        24.8291   30.5287   59.2658  C     
23   C        24.4517   31.8255   59.6896  C     
24   C        25.3820   32.6819   60.3071  C     
25   C        26.7046   32.2509   60.5192  C     
26   C        27.0999   30.9666   60.0939  C     
27   C        26.1678   30.1143   59.4741  C     
28   F        28.3279   30.5582   60.2556  F     
29   C        20.3774   29.9359   53.8987  C     
30   O        20.2978   36.1743   59.4779  O     
31   C        19.5019   37.3318   59.8237  C     
32   C        20.3990   38.4048   60.4974  C     
33   O        20.4842   38.2999   61.9353  O     
34   C        20.8420   37.0173   62.4623  C     
35   F        27.5571   33.0504   61.0965  F     
36   H        24.1211   28.2025   60.1010  H     
37   H        22.6950   26.6752   59.0714  H     
38   H        21.9856   30.8363   54.9055  H     
39   H        18.5677   29.8640   56.1832  H     
40   H        17.2266   31.2419   57.6267  H     
41   H        21.6811   32.7195   56.3172  H     
42   H        17.8915   35.1688   59.8728  H     
43   H        21.3652   34.7139   57.7797  H     
44   H        23.4877   32.1557   59.5510  H     
45   H        25.0909   33.6160   60.6022  H     
46   H        26.4614   29.1902   59.1594  H     
47   H        21.0522   29.3809   53.2449  H     
48   H        20.0677   30.8458   53.3786  H     
49   H        19.4971   29.3196   54.0801  H     
50   H        19.0553   37.7654   58.9208  H     
51   H        18.7263   37.0594   60.5355  H     
52   H        21.4014   38.4096   60.0580  H     
53   H        19.9623   39.3928   60.3001  H     
54   H        20.0265   36.3141   62.2730  H     
55   H        21.0000   37.0988   63.5421  H     
56   H        21.7664   36.6556   62.0147  H     
@<TRIPOS>BOND
     1    1    2 1
     2    1    4 1
     3    1   22 1
     4    2    3 2
     5    3    6 1
     6    4    5 1
     7    4   10 2
     8    5    6 2
     9    5    9 1
    10    6    7 1
    11    7    8 2
    12    8    9 1
    13    9   11 1
    14   11   12 1
    15   11   29 1
    16   12   13 2
    17   12   15 1
    18   13   14 1
    19   14   17 2
    20   15   16 2
    21   16   17 1
    22   16   21 1
    23   17   18 1
    24   18   19 2
    25   19   20 1
    26   20   21 2
    27   20   30 1
    28   22   23 2
    29   22   27 1
    30   23   24 1
    31   24   25 2
    32   25   26 1
    33   25   35 1
    34   26   27 2
    35   26   28 1
    36   30   31 1
    37   31   32 1
    38   32   33 1
    39   33   34 1
    40    2   36 1
    41    3   37 1
    42   11   38 1
    43   13   39 1
    44   14   40 1
    45   15   41 1
    46   19   42 1
    47   21   43 1
    48   23   44 1
    49   24   45 1
    50   27   46 1
    51   29   47 1
    52   29   48 1
    53   29   49 1
    54   31   50 1
    55   31   51 1
    56   32   52 1
    57   32   53 1
    58   34   54 1
    59   34   55 1
    60   34   56 1
@<TRIPOS>PROPERTY_DATA
  Total_Score	| 11.6220
  Crash		| -0.9903
  Polar		| 2.1791
  FragIndex	| 1
  FragRMSD	| 0.842

