@<TRIPOS>MOLECULE
BindingDB_50384117
 45 49 0 0 0
SMALL
NO_CHARGES


@<TRIPOS>ATOM
1    N        23.9841   29.6841   58.4372  N     
2    C        23.7443   28.4515   59.0243  C     
3    C        22.8782   27.5714   58.4891  C     
4    C        23.3061   29.9949   57.2900  C     
5    C        22.3589   29.1302   56.7916  C     
6    C        22.1980   27.9380   57.3769  C     
7    N        21.2160   27.3600   56.8079  N     
8    N        20.7849   28.1186   55.9464  N     
9    N        21.4267   29.1845   55.8906  N     
10   O        23.5618   30.9852   56.6204  O     
11   C        20.9164   30.3040   55.2033  C     
12   C        20.0934   31.1855   56.0745  C     
13   C        18.7744   30.8175   56.4452  C     
14   C        17.9980   31.6323   57.2802  C     
15   C        20.6157   32.4050   56.5609  C     
16   C        19.8591   33.2308   57.4121  C     
17   C        18.5535   32.8309   57.7818  C     
18   N        17.8601   33.6058   58.6570  N     
19   C        18.3609   34.7258   59.1783  C     
20   C        19.6225   35.1499   58.8254  C     
21   C        20.3581   34.4238   57.9527  C     
22   C        24.8545   30.5567   59.0571  C     
23   S        24.4288   32.1457   59.5659  S     
24   N        25.9243   32.3394   60.2374  N     
25   C        26.6866   31.3105   60.1339  C     
26   C        26.1191   30.3168   59.4358  C     
27   C        28.0087   31.2885   60.7248  C     
28   O        20.2480   36.1714   59.4546  O     
29   C        19.4723   37.3355   59.7889  C     
30   H        24.1784   28.1958   59.8827  H     
31   H        22.7057   26.6969   58.9267  H     
32   H        21.7471   30.8568   54.7532  H     
33   H        20.3044   29.9761   54.3527  H     
34   H        18.3693   29.9479   56.0975  H     
35   H        17.0539   31.3552   57.5465  H     
36   H        21.5619   32.6846   56.3138  H     
37   H        17.8317   35.2655   59.8349  H     
38   H        21.2795   34.7213   57.7045  H     
39   H        26.5958   29.4671   59.2149  H     
40   H        28.6655   31.9484   60.1578  H     
41   H        28.4318   30.2814   60.7282  H     
42   H        27.9534   31.6423   61.7554  H     
43   H        19.0266   37.7745   58.8932  H     
44   H        20.1320   38.0740   60.2520  H     
45   H        18.6680   37.0545   60.4850  H     
@<TRIPOS>BOND
     1    1    2 1
     2    1    4 1
     3    1   22 1
     4    2    3 2
     5    3    6 1
     6    4    5 1
     7    4   10 2
     8    5    6 2
     9    5    9 1
    10    6    7 1
    11    7    8 2
    12    8    9 1
    13    9   11 1
    14   11   12 1
    15   12   13 2
    16   12   15 1
    17   13   14 1
    18   14   17 2
    19   15   16 2
    20   16   17 1
    21   16   21 1
    22   17   18 1
    23   18   19 2
    24   19   20 1
    25   20   21 2
    26   20   28 1
    27   22   23 1
    28   22   26 2
    29   23   24 1
    30   24   25 2
    31   25   26 1
    32   25   27 1
    33   28   29 1
    34    2   30 1
    35    3   31 1
    36   11   32 1
    37   11   33 1
    38   13   34 1
    39   14   35 1
    40   15   36 1
    41   19   37 1
    42   21   38 1
    43   26   39 1
    44   27   40 1
    45   27   41 1
    46   27   42 1
    47   29   43 1
    48   29   44 1
    49   29   45 1
@<TRIPOS>PROPERTY_DATA
  Total_Score	| 9.3504
  Crash		| -0.7455
  Polar		| 2.2444
  FragIndex	| 1
  FragRMSD	| 0.342

