@<TRIPOS>MOLECULE
BindingDB_50384122
 50 54 0 0 0
SMALL
NO_CHARGES


@<TRIPOS>ATOM
1    N        23.9152   29.6845   58.4801  N     
2    C        23.7085   28.4354   59.0199  C     
3    C        22.8339   27.5754   58.4599  C     
4    C        23.2260   30.0603   57.3732  C     
5    C        22.3057   29.1953   56.8236  C     
6    C        22.1501   27.9843   57.3606  C     
7    N        21.2376   27.3932   56.7081  N     
8    N        20.8412   28.1655   55.8402  N     
9    N        21.4319   29.2583   55.8723  N     
10   O        23.4433   31.1175   56.7968  O     
11   C        20.9732   30.3836   55.1550  C     
12   C        20.1362   31.2767   56.0046  C     
13   C        18.8531   30.8489   56.4208  C     
14   C        18.0890   31.6244   57.3094  C     
15   C        20.6270   32.5231   56.4664  C     
16   C        19.8799   33.2998   57.3792  C     
17   C        18.6041   32.8402   57.8009  C     
18   N        17.9206   33.5666   58.7211  N     
19   C        18.4110   34.6760   59.2544  C     
20   C        19.6442   35.1554   58.8940  C     
21   C        20.3559   34.4869   57.9562  C     
22   C        24.7994   30.5341   59.1161  C     
23   S        24.4660   32.1354   59.6657  S     
24   C        25.9892   32.4250   60.4072  C     
25   C        26.7604   31.2765   60.2374  C     
26   C        26.1105   30.2442   59.5389  C     
27   O        20.2559   36.1532   59.5658  O     
28   C        19.4766   37.3402   59.8272  C     
29   C        20.3571   38.4330   60.4775  C     
30   O        20.5915   38.2883   61.8890  O     
31   C        20.9047   36.9603   62.3553  C     
32   H        24.1887   28.1428   59.8428  H     
33   H        22.6796   26.6778   58.8543  H     
34   H        21.8349   30.9119   54.7381  H     
35   H        20.3744   30.0733   54.2904  H     
36   H        18.4753   29.9510   56.0987  H     
37   H        17.1766   31.2805   57.6282  H     
38   H        21.5521   32.8467   56.1726  H     
39   H        17.8725   35.1388   59.9412  H     
40   H        21.2578   34.8217   57.7083  H     
41   H        26.2667   33.2758   60.9015  H     
42   H        27.7133   31.1892   60.5979  H     
43   H        26.5637   29.3461   59.3585  H     
44   H        19.0710   37.7358   58.8936  H     
45   H        18.6474   37.1175   60.5031  H     
46   H        21.3088   38.5093   59.9513  H     
47   H        19.8432   39.3890   60.3649  H     
48   H        20.0212   36.3141   62.2658  H     
49   H        21.1745   37.0264   63.4125  H     
50   H        21.7419   36.5117   61.8039  H     
@<TRIPOS>BOND
     1    1    2 1
     2    1    4 1
     3    1   22 1
     4    2    3 2
     5    3    6 1
     6    4    5 1
     7    4   10 2
     8    5    6 2
     9    5    9 1
    10    6    7 1
    11    7    8 2
    12    8    9 1
    13    9   11 1
    14   11   12 1
    15   12   13 2
    16   12   15 1
    17   13   14 1
    18   14   17 2
    19   15   16 2
    20   16   17 1
    21   16   21 1
    22   17   18 1
    23   18   19 2
    24   19   20 1
    25   20   21 2
    26   20   27 1
    27   22   23 1
    28   22   26 2
    29   23   24 1
    30   24   25 2
    31   25   26 1
    32   27   28 1
    33   28   29 1
    34   29   30 1
    35   30   31 1
    36    2   32 1
    37    3   33 1
    38   11   34 1
    39   11   35 1
    40   13   36 1
    41   14   37 1
    42   15   38 1
    43   19   39 1
    44   21   40 1
    45   24   41 1
    46   25   42 1
    47   26   43 1
    48   28   44 1
    49   28   45 1
    50   29   46 1
    51   29   47 1
    52   31   48 1
    53   31   49 1
    54   31   50 1
@<TRIPOS>PROPERTY_DATA
  Total_Score	| 9.7730
  Crash		| -0.7826
  Polar		| 2.2364
  FragIndex	| 1
  FragRMSD	| 0.799

