@<TRIPOS>MOLECULE
BindingDB_50384123
 45 49 0 0 0
SMALL
NO_CHARGES


@<TRIPOS>ATOM
1    N        23.9425   29.7010   58.6151  N     
2    C        23.7315   28.4497   59.1814  C     
3    C        22.8991   27.5393   58.6284  C     
4    C        23.2337   30.0062   57.4862  C     
5    C        22.3504   29.0954   56.9433  C     
6    C        22.2365   27.8931   57.5064  C     
7    N        21.3859   27.2260   56.8389  N     
8    N        20.9855   27.9520   55.9388  N     
9    N        21.5222   29.0793   55.9403  N     
10   O        23.3697   31.0638   56.8834  O     
11   C        20.9982   30.1657   55.1967  C     
12   C        20.1507   31.0486   56.0767  C     
13   C        18.9120   30.5940   56.5999  C     
14   C        18.1492   31.3959   57.4685  C     
15   C        20.6004   32.3401   56.4512  C     
16   C        19.8564   33.1450   57.3393  C     
17   C        18.6228   32.6621   57.8509  C     
18   N        17.9370   33.4415   58.7358  N     
19   C        18.3872   34.6214   59.1414  C     
20   C        19.5761   35.1052   58.6761  C     
21   C        20.2937   34.4010   57.7778  C     
22   C        24.8587   30.5759   59.2185  C     
23   S        24.6610   32.2822   59.5205  S     
24   C        26.1803   32.6093   60.2398  C     
25   C        26.8849   31.3939   60.2827  C     
26   C        26.1649   30.3226   59.7023  C     
27   C        20.2655   29.7237   53.8972  C     
28   C        28.2346   31.2621   60.8673  C     
29   H        24.1716   28.1751   60.0267  H     
30   H        22.7603   26.6451   59.0422  H     
31   H        21.8503   30.7377   54.8115  H     
32   H        18.5581   29.6675   56.3620  H     
33   H        17.2628   31.0405   57.8364  H     
34   H        21.4931   32.6898   56.0968  H     
35   H        17.8552   35.1485   59.7913  H     
36   H        19.9076   35.9848   58.9939  H     
37   H        21.1512   34.7746   57.4400  H     
38   H        26.5163   33.5105   60.6069  H     
39   H        26.5960   29.3961   59.6409  H     
40   H        20.9354   29.1207   53.2747  H     
41   H        19.9504   30.5982   53.3221  H     
42   H        19.3903   29.1153   54.1265  H     
43   H        28.9458   31.8570   60.2818  H     
44   H        28.5677   30.2123   60.8703  H     
45   H        28.2202   31.6226   61.9041  H     
@<TRIPOS>BOND
     1    1    2 1
     2    1    4 1
     3    1   22 1
     4    2    3 2
     5    3    6 1
     6    4    5 1
     7    4   10 2
     8    5    6 2
     9    5    9 1
    10    6    7 1
    11    7    8 2
    12    8    9 1
    13    9   11 1
    14   11   12 1
    15   11   27 1
    16   12   13 2
    17   12   15 1
    18   13   14 1
    19   14   17 2
    20   15   16 2
    21   16   17 1
    22   16   21 1
    23   17   18 1
    24   18   19 2
    25   19   20 1
    26   20   21 2
    27   22   23 1
    28   22   26 2
    29   23   24 1
    30   24   25 2
    31   25   26 1
    32   25   28 1
    33    2   29 1
    34    3   30 1
    35   11   31 1
    36   13   32 1
    37   14   33 1
    38   15   34 1
    39   19   35 1
    40   20   36 1
    41   21   37 1
    42   24   38 1
    43   26   39 1
    44   27   40 1
    45   27   41 1
    46   27   42 1
    47   28   43 1
    48   28   44 1
    49   28   45 1
@<TRIPOS>PROPERTY_DATA
  Total_Score	| 9.8617
  Crash		| -0.7360
  Polar		| 2.1216
  FragIndex	| 1
  FragRMSD	| 0.139

