@<TRIPOS>MOLECULE
BindingDB_50384126
 46 50 0 0 0
SMALL
NO_CHARGES


@<TRIPOS>ATOM
1    N        23.9088   29.6139   58.5877  N     
2    C        23.6668   28.3628   59.1076  C     
3    C        22.8165   27.5085   58.5003  C     
4    C        23.2512   30.0161   57.4687  C     
5    C        22.3357   29.1688   56.8846  C     
6    C        22.1636   27.9441   57.3869  C     
7    N        21.2803   27.3639   56.6796  N     
8    N        20.9094   28.1561   55.8180  N     
9    N        21.4987   29.2465   55.8967  N     
10   O        23.5112   31.0719   56.9026  O     
11   C        21.0731   30.3924   55.2004  C     
12   C        20.2350   31.2797   56.0544  C     
13   C        18.9156   30.8871   56.3996  C     
14   C        18.1163   31.6819   57.2477  C     
15   C        20.7338   32.5021   56.5672  C     
16   C        19.9544   33.2905   57.4436  C     
17   C        18.6384   32.8734   57.7828  C     
18   N        17.9190   33.6390   58.6483  N     
19   C        18.4057   34.7424   59.1926  C     
20   C        19.6823   35.1759   58.9025  C     
21   C        20.4364   34.4616   58.0358  C     
22   C        24.8367   30.4246   59.2156  C     
23   C        24.4776   31.7066   59.7025  C     
24   C        25.4228   32.5035   60.3766  C     
25   C        26.7353   32.0360   60.5665  C     
26   C        27.1074   30.7714   60.0766  C     
27   C        26.1636   29.9671   59.4141  C     
28   F        25.0769   33.6739   60.8325  F     
29   F        28.3279   30.3392   60.2382  F     
30   O        20.3143   36.2161   59.4853  O     
31   C        19.6107   37.4286   59.8465  C     
32   H        24.1206   28.0530   59.9414  H     
33   H        22.6535   26.5916   58.8658  H     
34   H        21.9479   30.9144   54.8050  H     
35   H        20.4828   30.1084   54.3236  H     
36   H        18.5252   30.0109   56.0458  H     
37   H        17.1643   31.3842   57.4886  H     
38   H        21.6815   32.8102   56.3342  H     
39   H        17.8151   35.2528   59.8108  H     
40   H        21.3670   34.7589   57.8434  H     
41   H        23.5274   32.0513   59.5715  H     
42   H        27.4146   32.6145   61.0619  H     
43   H        26.4448   29.0479   59.0632  H     
44   H        19.0876   37.8461   58.9749  H     
45   H        20.3341   38.1634   60.1994  H     
46   H        18.8909   37.2303   60.6503  H     
@<TRIPOS>BOND
     1    1    2 1
     2    1    4 1
     3    1   22 1
     4    2    3 2
     5    3    6 1
     6    4    5 1
     7    4   10 2
     8    5    6 2
     9    5    9 1
    10    6    7 1
    11    7    8 2
    12    8    9 1
    13    9   11 1
    14   11   12 1
    15   12   13 2
    16   12   15 1
    17   13   14 1
    18   14   17 2
    19   15   16 2
    20   16   17 1
    21   16   21 1
    22   17   18 1
    23   18   19 2
    24   19   20 1
    25   20   21 2
    26   20   30 1
    27   22   23 2
    28   22   27 1
    29   23   24 1
    30   24   25 2
    31   24   28 1
    32   25   26 1
    33   26   27 2
    34   26   29 1
    35   30   31 1
    36    2   32 1
    37    3   33 1
    38   11   34 1
    39   11   35 1
    40   13   36 1
    41   14   37 1
    42   15   38 1
    43   19   39 1
    44   21   40 1
    45   23   41 1
    46   25   42 1
    47   27   43 1
    48   31   44 1
    49   31   45 1
    50   31   46 1
@<TRIPOS>PROPERTY_DATA
  Total_Score	| 9.9286
  Crash		| -0.6338
  Polar		| 2.2071
  FragIndex	| 1
  FragRMSD	| 0.487

