@<TRIPOS>MOLECULE
BindingDB_50384116
 41 45 0 0 0
SMALL
NO_CHARGES


@<TRIPOS>ATOM
1    N        23.9379   29.6677   58.4850  N     
2    C        23.7371   28.4211   59.0396  C     
3    C        22.8737   27.5434   58.4896  C     
4    C        23.2420   30.0195   57.3707  C     
5    C        22.3218   29.1438   56.8418  C     
6    C        22.1825   27.9361   57.3892  C     
7    N        21.2848   27.3234   56.7306  N     
8    N        20.8772   28.0804   55.8558  N     
9    N        21.4480   29.1838   55.8858  N     
10   O        23.4709   31.0523   56.7534  O     
11   C        20.9571   30.3027   55.1868  C     
12   C        20.1280   31.1848   56.0580  C     
13   C        18.8586   30.7459   56.5060  C     
14   C        18.0791   31.5404   57.3669  C     
15   C        20.5951   32.4539   56.4755  C     
16   C        19.8322   33.2526   57.3542  C     
17   C        18.5653   32.7868   57.7998  C     
18   N        17.8510   33.5666   58.6586  N     
19   C        18.3020   34.7337   59.0989  C     
20   C        19.5223   35.2005   58.7022  C     
21   C        20.2741   34.4906   57.8361  C     
22   C        24.8200   30.5156   59.0728  C     
23   S        24.4351   32.1133   59.5460  S     
24   N        25.9671   32.2764   60.1348  N     
25   C        26.7075   31.2428   60.0083  C     
26   C        26.0775   30.2245   59.4147  C     
27   C        28.0790   31.2319   60.4688  C     
28   H        24.2143   28.1430   59.8679  H     
29   H        22.7313   26.6443   58.8879  H     
30   H        21.8025   30.8439   54.7526  H     
31   H        20.3391   29.9884   54.3386  H     
32   H        18.4938   29.8365   56.2107  H     
33   H        17.1680   31.2017   57.6876  H     
34   H        21.5062   32.7913   56.1562  H     
35   H        17.7417   35.2641   59.7235  H     
36   H        19.8531   36.0716   59.0487  H     
37   H        21.1558   34.8520   57.5503  H     
38   H        26.5078   29.3492   59.2245  H     
39   H        28.6453   32.0088   59.9517  H     
40   H        28.5637   30.2709   60.2805  H     
41   H        28.1068   31.4288   61.5429  H     
@<TRIPOS>BOND
     1    1    2 1
     2    1    4 1
     3    1   22 1
     4    2    3 2
     5    3    6 1
     6    4    5 1
     7    4   10 2
     8    5    6 2
     9    5    9 1
    10    6    7 1
    11    7    8 2
    12    8    9 1
    13    9   11 1
    14   11   12 1
    15   12   13 2
    16   12   15 1
    17   13   14 1
    18   14   17 2
    19   15   16 2
    20   16   17 1
    21   16   21 1
    22   17   18 1
    23   18   19 2
    24   19   20 1
    25   20   21 2
    26   22   23 1
    27   22   26 2
    28   23   24 1
    29   24   25 2
    30   25   26 1
    31   25   27 1
    32    2   28 1
    33    3   29 1
    34   11   30 1
    35   11   31 1
    36   13   32 1
    37   14   33 1
    38   15   34 1
    39   19   35 1
    40   20   36 1
    41   21   37 1
    42   26   38 1
    43   27   39 1
    44   27   40 1
    45   27   41 1
@<TRIPOS>PROPERTY_DATA
  Total_Score	| 8.4365
  Crash		| -0.6657
  Polar		| 2.2308
  FragIndex	| 1
  FragRMSD	| 0.124

