@<TRIPOS>MOLECULE
BindingDB_50384124
 45 49 0 0 0
SMALL
NO_CHARGES


@<TRIPOS>ATOM
1    N        23.9868   29.6447   58.6284  N     
2    C        23.8636   28.3802   59.1425  C     
3    C        23.0267   27.4848   58.5853  C     
4    C        23.2728   30.0042   57.5324  C     
5    C        22.3966   29.1034   56.9702  C     
6    C        22.3080   27.8780   57.4997  C     
7    N        21.4217   27.2418   56.8454  N     
8    N        20.9883   27.9930   55.9790  N     
9    N        21.5291   29.1186   56.0058  N     
10   O        23.4254   31.0899   56.9905  O     
11   C        21.0548   30.2252   55.2674  C     
12   C        20.1790   31.0940   56.1232  C     
13   C        18.9603   30.6056   56.6568  C     
14   C        18.1655   31.3923   57.5100  C     
15   C        20.5850   32.4088   56.4720  C     
16   C        19.8137   33.1965   57.3510  C     
17   C        18.5920   32.6848   57.8614  C     
18   N        17.8637   33.4669   58.7072  N     
19   C        18.2699   34.6689   59.0879  C     
20   C        19.4633   35.1697   58.6569  C     
21   C        20.2180   34.4688   57.7845  C     
22   C        24.8176   30.5295   59.2779  C     
23   S        26.4482   30.2509   59.7695  S     
24   C        26.7203   31.7746   60.5140  C     
25   C        25.5298   32.5012   60.3877  C     
26   C        24.4998   31.8233   59.7139  C     
27   C        20.3344   29.8394   53.9392  C     
28   C        27.9749   32.2002   61.1523  C     
29   H        24.3710   28.0949   59.9533  H     
30   H        22.9293   26.5625   58.9591  H     
31   H        21.9300   30.7862   54.9287  H     
32   H        18.6377   29.6637   56.4262  H     
33   H        17.2905   31.0149   57.8860  H     
34   H        21.4593   32.7875   56.1041  H     
35   H        17.7028   35.2070   59.6973  H     
36   H        19.7706   36.0520   58.9855  H     
37   H        21.0879   34.8463   57.4850  H     
38   H        25.4151   33.4483   60.7625  H     
39   H        23.5803   32.2435   59.5749  H     
40   H        21.0000   29.2344   53.3125  H     
41   H        20.0692   30.7371   53.3748  H     
42   H        19.4276   29.2621   54.1253  H     
43   H        28.2027   31.5388   61.9867  H     
44   H        27.8953   33.2202   61.5233  H     
45   H        28.7853   32.1521   60.4284  H     
@<TRIPOS>BOND
     1    1    2 1
     2    1    4 1
     3    1   22 1
     4    2    3 2
     5    3    6 1
     6    4    5 1
     7    4   10 2
     8    5    6 2
     9    5    9 1
    10    6    7 1
    11    7    8 2
    12    8    9 1
    13    9   11 1
    14   11   12 1
    15   11   27 1
    16   12   13 2
    17   12   15 1
    18   13   14 1
    19   14   17 2
    20   15   16 2
    21   16   17 1
    22   16   21 1
    23   17   18 1
    24   18   19 2
    25   19   20 1
    26   20   21 2
    27   22   23 1
    28   22   26 2
    29   23   24 1
    30   24   25 2
    31   24   28 1
    32   25   26 1
    33    2   29 1
    34    3   30 1
    35   11   31 1
    36   13   32 1
    37   14   33 1
    38   15   34 1
    39   19   35 1
    40   20   36 1
    41   21   37 1
    42   25   38 1
    43   26   39 1
    44   27   40 1
    45   27   41 1
    46   27   42 1
    47   28   43 1
    48   28   44 1
    49   28   45 1
@<TRIPOS>PROPERTY_DATA
  Total_Score	| 9.9986
  Crash		| -1.1970
  Polar		| 2.1436
  FragIndex	| 1
  FragRMSD	| 0.781

