@<TRIPOS>MOLECULE
BindingDB_50384121
 55 59 0 0 0
SMALL
NO_CHARGES


@<TRIPOS>ATOM
1    N        23.9925   29.6869   58.5419  N     
2    C        23.7984   28.4625   59.1466  C     
3    C        22.9381   27.5599   58.6349  C     
4    C        23.3095   29.9849   57.4012  C     
5    C        22.3961   29.0790   56.8975  C     
6    C        22.2492   27.9056   57.5159  C     
7    N        21.3299   27.2746   56.9110  N     
8    N        20.9189   27.9853   56.0028  N     
9    N        21.5195   29.0804   55.9338  N     
10   O        23.5601   30.9890   56.7449  O     
11   C        21.0192   30.1843   55.1875  C     
12   C        20.1652   31.0726   56.0448  C     
13   C        18.9240   30.6077   56.5406  C     
14   C        18.1385   31.4029   57.3927  C     
15   C        20.6180   32.3514   56.4489  C     
16   C        19.8636   33.1510   57.3435  C     
17   C        18.6064   32.6636   57.7967  C     
18   N        17.8871   33.4501   58.6509  N     
19   C        18.3231   34.6210   59.0769  C     
20   C        19.5608   35.1004   58.7105  C     
21   C        20.3076   34.3824   57.8443  C     
22   C        24.8542   30.5649   59.1117  C     
23   S        24.4548   32.1847   59.4874  S     
24   N        25.9685   32.3812   60.1151  N     
25   C        26.7075   31.3398   60.0773  C     
26   C        26.0945   30.2907   59.5219  C     
27   C        28.0708   31.3540   60.5732  C     
28   O        20.1831   36.1582   59.3117  O     
29   C        19.4610   37.3181   59.8201  C     
30   C        20.3437   38.0878   60.8513  C     
31   O        20.9158   39.3235   60.3562  O     
32   C        22.3544   39.3695   60.2757  C     
33   C        20.2968   29.7644   53.8724  C     
34   H        24.2734   28.2232   59.9876  H     
35   H        22.7901   26.6851   59.0775  H     
36   H        21.8904   30.7458   54.8340  H     
37   H        18.5925   29.6756   56.2925  H     
38   H        17.2434   31.0545   57.7411  H     
39   H        21.5120   32.7033   56.0981  H     
40   H        17.7288   35.1331   59.6676  H     
41   H        21.2123   34.7225   57.5866  H     
42   H        26.5347   29.4089   59.3925  H     
43   H        28.6566   32.1047   60.0317  H     
44   H        28.5555   30.3792   60.4395  H     
45   H        28.0714   31.6011   61.6398  H     
46   H        19.1891   37.9758   58.9839  H     
47   H        18.5544   37.0286   60.3443  H     
48   H        19.7091   38.4168   61.6915  H     
49   H        21.1004   37.4306   61.2980  H     
50   H        22.8066   39.1638   61.2532  H     
51   H        22.6439   40.3902   59.9669  H     
52   H        22.7446   38.6658   59.5294  H     
53   H        20.9662   29.1802   53.2316  H     
54   H        19.9700   30.6422   53.3113  H     
55   H        19.4217   29.1352   54.0728  H     
@<TRIPOS>BOND
     1    1    2 1
     2    1    4 1
     3    1   22 1
     4    2    3 2
     5    3    6 1
     6    4    5 1
     7    4   10 2
     8    5    6 2
     9    5    9 1
    10    6    7 1
    11    7    8 2
    12    8    9 1
    13    9   11 1
    14   11   12 1
    15   11   33 1
    16   12   13 2
    17   12   15 1
    18   13   14 1
    19   14   17 2
    20   15   16 2
    21   16   17 1
    22   16   21 1
    23   17   18 1
    24   18   19 2
    25   19   20 1
    26   20   21 2
    27   20   28 1
    28   22   23 1
    29   22   26 2
    30   23   24 1
    31   24   25 2
    32   25   26 1
    33   25   27 1
    34   28   29 1
    35   29   30 1
    36   30   31 1
    37   31   32 1
    38    2   34 1
    39    3   35 1
    40   11   36 1
    41   13   37 1
    42   14   38 1
    43   15   39 1
    44   19   40 1
    45   21   41 1
    46   26   42 1
    47   27   43 1
    48   27   44 1
    49   27   45 1
    50   29   46 1
    51   29   47 1
    52   30   48 1
    53   30   49 1
    54   32   50 1
    55   32   51 1
    56   32   52 1
    57   33   53 1
    58   33   54 1
    59   33   55 1
@<TRIPOS>PROPERTY_DATA
  Total_Score	| 11.6980
  Crash		| -0.8633
  Polar		| 2.1550
  FragIndex	| 1
  FragRMSD	| 0.409

