@<TRIPOS>MOLECULE
BindingDB_50384127
 53 57 0 0 0
SMALL
NO_CHARGES


@<TRIPOS>ATOM
1    N        24.0205   29.4281   58.5307  N     
2    C        23.7114   28.1864   59.0388  C     
3    C        22.7943   27.4015   58.4433  C     
4    C        23.3597   29.8931   57.4385  C     
5    C        22.3842   29.1079   56.8618  C     
6    C        22.1486   27.8876   57.3517  C     
7    N        21.2276   27.3641   56.6516  N     
8    N        20.8940   28.1854   55.7986  N     
9    N        21.5454   29.2408   55.8804  N     
10   O        23.6390   30.9613   56.9098  O     
11   C        21.1430   30.4242   55.2359  C     
12   C        20.2922   31.2811   56.1116  C     
13   C        18.9864   30.8473   56.4536  C     
14   C        18.1634   31.6299   57.2896  C     
15   C        20.7664   32.5119   56.6272  C     
16   C        19.9622   33.2929   57.4890  C     
17   C        18.6560   32.8430   57.8095  C     
18   N        17.9008   33.6131   58.6443  N     
19   C        18.3469   34.7447   59.1795  C     
20   C        19.6316   35.1914   58.9295  C     
21   C        20.4171   34.4800   58.0816  C     
22   C        25.0175   30.1608   59.1518  C     
23   C        26.2822   29.5806   59.4225  C     
24   C        27.2898   30.3129   60.0784  C     
25   C        27.0409   31.6375   60.4915  C     
26   C        25.7901   32.2254   60.2377  C     
27   C        24.7885   31.4931   59.5678  C     
28   F        28.4543   29.7628   60.3020  F     
29   F        25.5489   33.4485   60.6347  F     
30   O        20.2308   36.2416   59.5464  O     
31   C        19.4644   37.3775   60.0112  C     
32   C        20.2792   38.2715   60.9758  C     
33   O        20.9607   39.3374   60.2892  O     
34   C        22.3932   39.2568   60.2597  C     
35   H        24.1609   27.8365   59.8548  H     
36   H        22.5894   26.4950   58.7975  H     
37   H        22.0297   30.9611   54.8939  H     
38   H        20.5853   30.1800   54.3228  H     
39   H        18.6274   29.9617   56.0913  H     
40   H        17.2259   31.3032   57.5277  H     
41   H        21.7084   32.8391   56.3929  H     
42   H        17.7282   35.2622   59.7639  H     
43   H        21.3497   34.7852   57.9044  H     
44   H        26.4735   28.6187   59.1353  H     
45   H        27.7682   32.1682   60.9831  H     
46   H        23.8770   31.9308   59.4050  H     
47   H        19.1399   37.9772   59.1537  H     
48   H        18.5804   37.0373   60.5590  H     
49   H        19.5791   38.7568   61.6565  H     
50   H        20.9493   37.6527   61.5887  H     
51   H        22.8075   39.3243   61.2694  H     
52   H        22.7670   40.0999   59.6797  H     
53   H        22.7197   38.3277   59.7861  H     
@<TRIPOS>BOND
     1    1    2 1
     2    1    4 1
     3    1   22 1
     4    2    3 2
     5    3    6 1
     6    4    5 1
     7    4   10 2
     8    5    6 2
     9    5    9 1
    10    6    7 1
    11    7    8 2
    12    8    9 1
    13    9   11 1
    14   11   12 1
    15   12   13 2
    16   12   15 1
    17   13   14 1
    18   14   17 2
    19   15   16 2
    20   16   17 1
    21   16   21 1
    22   17   18 1
    23   18   19 2
    24   19   20 1
    25   20   21 2
    26   20   30 1
    27   22   23 2
    28   22   27 1
    29   23   24 1
    30   24   25 2
    31   24   28 1
    32   25   26 1
    33   26   27 2
    34   26   29 1
    35   30   31 1
    36   31   32 1
    37   32   33 1
    38   33   34 1
    39    2   35 1
    40    3   36 1
    41   11   37 1
    42   11   38 1
    43   13   39 1
    44   14   40 1
    45   15   41 1
    46   19   42 1
    47   21   43 1
    48   23   44 1
    49   25   45 1
    50   27   46 1
    51   31   47 1
    52   31   48 1
    53   32   49 1
    54   32   50 1
    55   34   51 1
    56   34   52 1
    57   34   53 1
@<TRIPOS>PROPERTY_DATA
  Total_Score	| 10.2412
  Crash		| -0.9902
  Polar		| 2.1955
  FragIndex	| 1
  FragRMSD	| 0.589

