@<TRIPOS>MOLECULE
BindingDB_50384125
 45 49 0 0 0
SMALL
NO_CHARGES


@<TRIPOS>ATOM
1    N        24.3080   29.7757   58.2208  N     
2    C        24.1912   28.5315   58.8232  C     
3    C        23.2167   27.6589   58.4966  C     
4    C        23.4089   30.0818   57.2413  C     
5    C        22.4254   29.1756   56.8822  C     
6    C        22.3574   28.0107   57.5222  C     
7    N        21.3879   27.3508   57.0374  N     
8    N        20.8758   28.0336   56.1622  N     
9    N        21.4595   29.1262   56.0076  N     
10   O        23.3604   31.1599   56.6812  O     
11   C        20.9450   30.1583   55.1869  C     
12   C        20.0672   31.0682   55.9992  C     
13   C        18.8100   30.6344   56.4962  C     
14   C        18.0409   31.4428   57.3516  C     
15   C        20.5206   32.3571   56.3706  C     
16   C        19.7826   33.1648   57.2612  C     
17   C        18.5293   32.6997   57.7522  C     
18   N        17.8485   33.4868   58.6279  N     
19   C        18.3179   34.6528   59.0545  C     
20   C        19.5329   35.1075   58.6291  C     
21   C        20.2493   34.3950   57.7319  C     
22   C        25.3179   30.6541   58.6453  C     
23   C        25.8343   31.8309   58.0664  C     
24   N        26.8184   32.3344   58.8238  N     
25   N        26.9859   31.5801   59.8589  N     
26   C        26.1047   30.5648   59.8051  C     
27   C        20.2470   29.6336   53.9014  C     
28   C        27.9732   31.8182   60.8670  C     
29   H        24.8383   28.2203   59.5086  H     
30   H        23.1436   26.7735   58.9391  H     
31   H        21.7991   30.7161   54.7899  H     
32   H        18.4489   29.7092   56.2482  H     
33   H        17.1456   31.1009   57.7066  H     
34   H        21.4180   32.6993   56.0210  H     
35   H        17.7806   35.1901   59.6919  H     
36   H        19.8942   35.9604   58.9849  H     
37   H        21.1314   34.7416   57.4346  H     
38   H        25.5558   32.2651   57.1890  H     
39   H        26.0347   29.8487   60.5284  H     
40   H        20.9251   28.9841   53.3413  H     
41   H        19.9695   30.4732   53.2594  H     
42   H        19.3510   29.0575   54.1424  H     
43   H        28.9709   31.8247   60.4185  H     
44   H        27.9530   31.0437   61.6404  H     
45   H        27.7994   32.7836   61.3487  H     
@<TRIPOS>BOND
     1    1    2 1
     2    1    4 1
     3    1   22 1
     4    2    3 2
     5    3    6 1
     6    4    5 1
     7    4   10 2
     8    5    6 2
     9    5    9 1
    10    6    7 1
    11    7    8 2
    12    8    9 1
    13    9   11 1
    14   11   12 1
    15   11   27 1
    16   12   13 2
    17   12   15 1
    18   13   14 1
    19   14   17 2
    20   15   16 2
    21   16   17 1
    22   16   21 1
    23   17   18 1
    24   18   19 2
    25   19   20 1
    26   20   21 2
    27   22   23 1
    28   22   26 2
    29   23   24 2
    30   24   25 1
    31   25   26 1
    32   25   28 1
    33    2   29 1
    34    3   30 1
    35   11   31 1
    36   13   32 1
    37   14   33 1
    38   15   34 1
    39   19   35 1
    40   20   36 1
    41   21   37 1
    42   23   38 1
    43   26   39 1
    44   27   40 1
    45   27   41 1
    46   27   42 1
    47   28   43 1
    48   28   44 1
    49   28   45 1
@<TRIPOS>PROPERTY_DATA
  Total_Score	| 10.2987
  Crash		| -0.7424
  Polar		| 2.1839
  FragIndex	| 1
  FragRMSD	| 0.260

