@<TRIPOS>MOLECULE
BindingDB_50384118
 52 56 0 0 0
SMALL
NO_CHARGES


@<TRIPOS>ATOM
1    N        23.9323   29.7223   58.5286  N     
2    C        23.7282   28.4803   59.1044  C     
3    C        22.8795   27.5892   58.5451  C     
4    C        23.2662   30.0562   57.3899  C     
5    C        22.3623   29.1685   56.8570  C     
6    C        22.2106   27.9666   57.4202  C     
7    N        21.3190   27.3427   56.7570  N     
8    N        20.9309   28.0882   55.8598  N     
9    N        21.5129   29.1865   55.8769  N     
10   O        23.4895   31.0934   56.7734  O     
11   C        21.0169   30.2988   55.1747  C     
12   C        20.1751   31.1730   56.0415  C     
13   C        18.8949   30.7257   56.4642  C     
14   C        18.1007   31.5264   57.3123  C     
15   C        20.6406   32.4323   56.4875  C     
16   C        19.8745   33.2143   57.3786  C     
17   C        18.5955   32.7560   57.7819  C     
18   N        17.8747   33.5182   58.6460  N     
19   C        18.3368   34.6644   59.1410  C     
20   C        19.5922   35.1286   58.8024  C     
21   C        20.3403   34.4145   57.9243  C     
22   C        24.8066   30.5708   59.1168  C     
23   S        24.4294   32.1754   59.5744  S     
24   N        25.9751   32.3471   60.1341  N     
25   C        26.7123   31.3086   60.0057  C     
26   C        26.0729   30.2846   59.4336  C     
27   C        28.0932   31.2971   60.4483  C     
28   O        20.2181   36.1768   59.3886  O     
29   C        19.4688   37.3260   59.8815  C     
30   C        20.2773   38.1479   60.9087  C     
31   O        20.9238   39.2872   60.2983  O     
32   C        22.3632   39.2724   60.2595  C     
33   H        24.1856   28.2187   59.9540  H     
34   H        22.7480   26.6833   58.9417  H     
35   H        21.8553   30.8512   54.7416  H     
36   H        20.4189   29.9728   54.3169  H     
37   H        18.5304   29.8173   56.1554  H     
38   H        17.1723   31.2017   57.6067  H     
39   H        21.5507   32.7777   56.1820  H     
40   H        17.7451   35.1635   59.7614  H     
41   H        21.2590   34.7330   57.7053  H     
42   H        26.5062   29.4103   59.2404  H     
43   H        28.6465   32.0967   59.9546  H     
44   H        28.5800   30.3480   60.2102  H     
45   H        28.1355   31.4471   61.5287  H     
46   H        19.1832   37.9770   59.0392  H     
47   H        18.5569   36.9966   60.4011  H     
48   H        19.5722   38.5372   61.6542  H     
49   H        20.9726   37.4755   61.4266  H     
50   H        22.7781   39.1970   61.2686  H     
51   H        22.7126   40.2084   59.8169  H     
52   H        22.7304   38.4400   59.6520  H     
@<TRIPOS>BOND
     1    1    2 1
     2    1    4 1
     3    1   22 1
     4    2    3 2
     5    3    6 1
     6    4    5 1
     7    4   10 2
     8    5    6 2
     9    5    9 1
    10    6    7 1
    11    7    8 2
    12    8    9 1
    13    9   11 1
    14   11   12 1
    15   12   13 2
    16   12   15 1
    17   13   14 1
    18   14   17 2
    19   15   16 2
    20   16   17 1
    21   16   21 1
    22   17   18 1
    23   18   19 2
    24   19   20 1
    25   20   21 2
    26   20   28 1
    27   22   23 1
    28   22   26 2
    29   23   24 1
    30   24   25 2
    31   25   26 1
    32   25   27 1
    33   28   29 1
    34   29   30 1
    35   30   31 1
    36   31   32 1
    37    2   33 1
    38    3   34 1
    39   11   35 1
    40   11   36 1
    41   13   37 1
    42   14   38 1
    43   15   39 1
    44   19   40 1
    45   21   41 1
    46   26   42 1
    47   27   43 1
    48   27   44 1
    49   27   45 1
    50   29   46 1
    51   29   47 1
    52   30   48 1
    53   30   49 1
    54   32   50 1
    55   32   51 1
    56   32   52 1
@<TRIPOS>PROPERTY_DATA
  Total_Score	| 10.2407
  Crash		| -0.7907
  Polar		| 2.2046
  FragIndex	| 1
  FragRMSD	| 0.423

