@<TRIPOS>MOLECULE
BindingDB_50384114
 53 57 0 0 0
SMALL
NO_CHARGES


@<TRIPOS>ATOM
1    N        23.9940   29.6805   58.5635  N     
2    C        23.8172   28.4431   59.1393  C     
3    C        22.9509   27.5506   58.6218  C     
4    C        23.2864   30.0103   57.4516  C     
5    C        22.3623   29.1187   56.9515  C     
6    C        22.2363   27.9245   57.5302  C     
7    N        21.3231   27.2986   56.9169  N     
8    N        20.8973   28.0314   56.0347  N     
9    N        21.4770   29.1326   56.0019  N     
10   O        23.5016   31.0395   56.8300  O     
11   C        20.9952   30.2398   55.2599  C     
12   C        20.1564   31.1307   56.1305  C     
13   C        18.8951   30.6951   56.6109  C     
14   C        18.1244   31.4978   57.4701  C     
15   C        20.6226   32.4103   56.5339  C     
16   C        19.8750   33.2181   57.4192  C     
17   C        18.6168   32.7485   57.8839  C     
18   N        17.9247   33.5171   58.7668  N     
19   C        18.3922   34.6663   59.2163  C     
20   C        19.6263   35.1536   58.8248  C     
21   C        20.3401   34.4428   57.9206  C     
22   C        24.8800   30.5652   59.1483  C     
23   S        24.5513   32.2020   59.5862  S     
24   C        26.0779   32.5459   60.2910  C     
25   C        26.8436   31.3853   60.1926  C     
26   C        26.1958   30.3049   59.5701  C     
27   O        20.2561   36.2004   59.4060  O     
28   C        19.5156   37.3757   59.8168  C     
29   C        20.4600   38.4101   60.4679  C     
30   O        20.6420   38.2212   61.8842  O     
31   C        21.4641   37.1118   62.2859  C     
32   C        20.2530   29.8459   53.9501  C     
33   H        24.3100   28.1805   59.9598  H     
34   H        22.8315   26.6527   59.0320  H     
35   H        21.8774   30.7848   54.9028  H     
36   H        18.5279   29.7778   56.3413  H     
37   H        17.2152   31.1605   57.8023  H     
38   H        21.5299   32.7485   56.2018  H     
39   H        17.8281   35.1624   59.8591  H     
40   H        21.2428   34.7663   57.6496  H     
41   H        26.3614   33.4339   60.7079  H     
42   H        27.8012   31.3275   60.5415  H     
43   H        26.6573   29.4025   59.4310  H     
44   H        19.0321   37.8296   58.9373  H     
45   H        18.7392   37.0999   60.5436  H     
46   H        21.4206   38.4396   59.9489  H     
47   H        20.0056   39.3930   60.3443  H     
48   H        21.0299   36.1616   61.9720  H     
49   H        21.5278   37.1115   63.3756  H     
50   H        22.4744   37.2057   61.8828  H     
51   H        20.9107   29.2566   53.3126  H     
52   H        19.9519   30.7375   53.3986  H     
53   H        19.3660   29.2462   54.1640  H     
@<TRIPOS>BOND
     1    1    2 1
     2    1    4 1
     3    1   22 1
     4    2    3 2
     5    3    6 1
     6    4    5 1
     7    4   10 2
     8    5    6 2
     9    5    9 1
    10    6    7 1
    11    7    8 2
    12    8    9 1
    13    9   11 1
    14   11   12 1
    15   11   32 1
    16   12   13 2
    17   12   15 1
    18   13   14 1
    19   14   17 2
    20   15   16 2
    21   16   17 1
    22   16   21 1
    23   17   18 1
    24   18   19 2
    25   19   20 1
    26   20   21 2
    27   20   27 1
    28   22   23 1
    29   22   26 2
    30   23   24 1
    31   24   25 2
    32   25   26 1
    33   27   28 1
    34   28   29 1
    35   29   30 1
    36   30   31 1
    37    2   33 1
    38    3   34 1
    39   11   35 1
    40   13   36 1
    41   14   37 1
    42   15   38 1
    43   19   39 1
    44   21   40 1
    45   24   41 1
    46   25   42 1
    47   26   43 1
    48   28   44 1
    49   28   45 1
    50   29   46 1
    51   29   47 1
    52   31   48 1
    53   31   49 1
    54   31   50 1
    55   32   51 1
    56   32   52 1
    57   32   53 1
@<TRIPOS>PROPERTY_DATA
  Total_Score	| 10.7825
  Crash		| -0.9676
  Polar		| 2.2015
  FragIndex	| 1
  FragRMSD	| 0.745

