@<TRIPOS>MOLECULE
BindingDB_50384120
 48 52 0 0 0
SMALL
NO_CHARGES


@<TRIPOS>ATOM
1    N        23.9891   29.6943   58.5881  N     
2    C        23.8056   28.4542   59.1693  C     
3    C        22.9571   27.5520   58.6381  C     
4    C        23.2867   30.0083   57.4664  C     
5    C        22.3899   29.0982   56.9391  C     
6    C        22.2654   27.9088   57.5264  C     
7    N        21.4041   27.2485   56.8664  N     
8    N        21.0014   27.9639   55.9555  N     
9    N        21.5504   29.0826   55.9398  N     
10   O        23.4895   31.0458   56.8394  O     
11   C        21.0664   30.1724   55.1736  C     
12   C        20.1998   31.0640   56.0140  C     
13   C        18.9571   30.6045   56.5229  C     
14   C        18.1914   31.3926   57.3999  C     
15   C        20.6391   32.3600   56.3822  C     
16   C        19.8995   33.1473   57.2924  C     
17   C        18.6684   32.6493   57.8017  C     
18   N        17.9943   33.3961   58.7201  N     
19   C        18.4643   34.5533   59.1687  C     
20   C        19.6718   35.0667   58.7243  C     
21   C        20.3612   34.3784   57.7800  C     
22   C        24.8704   30.5578   59.1535  C     
23   S        24.5044   32.1809   59.5441  S     
24   N        26.0238   32.3433   60.1679  N     
25   C        26.7497   31.2936   60.1066  C     
26   C        26.1146   30.2634   59.5397  C     
27   C        28.1094   31.2717   60.5994  C     
28   C        20.3574   29.7577   53.8450  C     
29   O        20.3153   36.1358   59.2487  O     
30   C        19.5866   37.2937   59.7170  C     
31   H        24.2924   28.2014   59.9962  H     
32   H        22.8422   26.6552   59.0482  H     
33   H        21.9475   30.7250   54.8302  H     
34   H        18.6161   29.6718   56.2869  H     
35   H        17.3149   31.0368   57.7828  H     
36   H        21.5322   32.7180   56.0262  H     
37   H        17.9206   35.0367   59.8502  H     
38   H        21.2407   34.7303   57.4565  H     
39   H        26.5322   29.3711   59.3985  H     
40   H        28.7083   32.0119   60.0626  H     
41   H        28.5772   30.2931   60.4664  H     
42   H        28.1200   31.5169   61.6652  H     
43   H        21.0369   29.1634   53.2247  H     
44   H        20.0645   30.6491   53.2772  H     
45   H        19.4643   29.1535   54.0407  H     
46   H        18.8615   37.6255   58.9668  H     
47   H        20.2982   38.0977   59.8948  H     
48   H        19.0725   37.0603   60.6600  H     
@<TRIPOS>BOND
     1    1    2 1
     2    1    4 1
     3    1   22 1
     4    2    3 2
     5    3    6 1
     6    4    5 1
     7    4   10 2
     8    5    6 2
     9    5    9 1
    10    6    7 1
    11    7    8 2
    12    8    9 1
    13    9   11 1
    14   11   12 1
    15   11   28 1
    16   12   13 2
    17   12   15 1
    18   13   14 1
    19   14   17 2
    20   15   16 2
    21   16   17 1
    22   16   21 1
    23   17   18 1
    24   18   19 2
    25   19   20 1
    26   20   21 2
    27   20   29 1
    28   22   23 1
    29   22   26 2
    30   23   24 1
    31   24   25 2
    32   25   26 1
    33   25   27 1
    34   29   30 1
    35    2   31 1
    36    3   32 1
    37   11   33 1
    38   13   34 1
    39   14   35 1
    40   15   36 1
    41   19   37 1
    42   21   38 1
    43   26   39 1
    44   27   40 1
    45   27   41 1
    46   27   42 1
    47   28   43 1
    48   28   44 1
    49   28   45 1
    50   30   46 1
    51   30   47 1
    52   30   48 1
@<TRIPOS>PROPERTY_DATA
  Total_Score	| 10.5102
  Crash		| -1.0310
  Polar		| 2.0799
  FragIndex	| 1
  FragRMSD	| 0.301

