@<TRIPOS>MOLECULE
BindingDB_50384128
 56 60 0 0 0
SMALL
NO_CHARGES


@<TRIPOS>ATOM
1    N        23.8897   29.6544   58.6737  N     
2    C        23.6749   28.4157   59.2311  C     
3    C        22.8421   27.5288   58.6502  C     
4    C        23.2261   30.0113   57.5456  C     
5    C        22.3268   29.1316   56.9857  C     
6    C        22.1842   27.9246   57.5307  C     
7    N        21.2844   27.3102   56.8760  N     
8    N        20.8895   28.0593   55.9907  N     
9    N        21.4770   29.1589   56.0004  N     
10   O        23.4681   31.0620   56.9666  O     
11   C        21.0497   30.2707   55.2326  C     
12   C        20.1620   31.1607   56.0487  C     
13   C        18.8667   30.7476   56.4511  C     
14   C        18.0632   31.5582   57.2769  C     
15   C        20.6200   32.4341   56.4785  C     
16   C        19.8434   33.2345   57.3402  C     
17   C        18.5556   32.7879   57.7525  C     
18   N        17.8487   33.5556   58.6266  N     
19   C        18.3279   34.6930   59.1185  C     
20   C        19.5675   35.1517   58.7449  C     
21   C        20.3066   34.4412   57.8672  C     
22   C        24.8287   30.4771   59.2643  C     
23   C        24.4978   31.7732   59.7276  C     
24   C        25.4615   32.5792   60.3704  C     
25   C        26.7760   32.1051   60.5397  C     
26   C        27.1259   30.8273   60.0682  C     
27   C        26.1598   30.0237   59.4352  C     
28   F        25.1292   33.7592   60.8262  F     
29   F        28.3417   30.3795   60.2263  F     
30   C        20.3892   29.8894   53.8767  C     
31   O        20.2122   36.1856   59.3180  O     
32   C        19.5307   37.3800   59.7725  C     
33   C        20.5942   38.2989   60.4305  C     
34   O        20.6501   38.2425   61.8697  O     
35   C        20.8885   36.9322   62.4482  C     
36   H        24.1357   28.1380   60.0671  H     
37   H        22.7104   26.6233   59.0268  H     
38   H        21.9501   30.8216   54.9390  H     
39   H        18.5001   29.8413   56.1440  H     
40   H        17.1274   31.2391   57.5521  H     
41   H        21.5448   32.7697   56.1911  H     
42   H        17.7595   35.1929   59.7552  H     
43   H        21.2172   34.7604   57.6108  H     
44   H        23.5429   32.1264   59.6181  H     
45   H        27.4742   32.6873   61.0065  H     
46   H        26.4272   29.0955   59.0948  H     
47   H        21.0933   29.3350   53.2599  H     
48   H        20.0843   30.7867   53.3318  H     
49   H        19.5095   29.2594   54.0261  H     
50   H        19.0769   37.8961   58.9161  H     
51   H        18.7772   37.1466   60.5387  H     
52   H        21.5904   38.0772   60.0384  H     
53   H        20.3671   39.3297   60.1761  H     
54   H        20.0811   36.2394   62.1710  H     
55   H        20.9207   37.0251   63.5322  H     
56   H        21.8491   36.5122   62.0968  H     
@<TRIPOS>BOND
     1    1    2 1
     2    1    4 1
     3    1   22 1
     4    2    3 2
     5    3    6 1
     6    4    5 1
     7    4   10 2
     8    5    6 2
     9    5    9 1
    10    6    7 1
    11    7    8 2
    12    8    9 1
    13    9   11 1
    14   11   12 1
    15   11   30 1
    16   12   13 2
    17   12   15 1
    18   13   14 1
    19   14   17 2
    20   15   16 2
    21   16   17 1
    22   16   21 1
    23   17   18 1
    24   18   19 2
    25   19   20 1
    26   20   21 2
    27   20   31 1
    28   22   23 2
    29   22   27 1
    30   23   24 1
    31   24   25 2
    32   24   28 1
    33   25   26 1
    34   26   27 2
    35   26   29 1
    36   31   32 1
    37   32   33 1
    38   33   34 1
    39   34   35 1
    40    2   36 1
    41    3   37 1
    42   11   38 1
    43   13   39 1
    44   14   40 1
    45   15   41 1
    46   19   42 1
    47   21   43 1
    48   23   44 1
    49   25   45 1
    50   27   46 1
    51   30   47 1
    52   30   48 1
    53   30   49 1
    54   32   50 1
    55   32   51 1
    56   33   52 1
    57   33   53 1
    58   35   54 1
    59   35   55 1
    60   35   56 1
@<TRIPOS>PROPERTY_DATA
  Total_Score	| 12.0581
  Crash		| -1.0880
  Polar		| 2.2118
  FragIndex	| 1
  FragRMSD	| 0.835

