@<TRIPOS>MOLECULE
BindingDB_50384119
 44 48 0 0 0
SMALL
NO_CHARGES


@<TRIPOS>ATOM
1    N        23.9888   29.7267   58.5748  N     
2    C        23.7142   28.5253   59.2164  C     
3    C        22.8773   27.6076   58.6824  C     
4    C        23.3393   29.9757   57.3979  C     
5    C        22.4143   29.0779   56.8981  C     
6    C        22.2473   27.9128   57.5245  C     
7    N        21.3163   27.2875   56.9333  N     
8    N        20.9194   28.0037   56.0209  N     
9    N        21.5298   29.0823   55.9424  N     
10   O        23.6152   30.9333   56.6875  O     
11   C        21.0222   30.1801   55.2039  C     
12   C        20.1586   31.0619   56.0600  C     
13   C        18.8783   30.6451   56.5031  C     
14   C        18.0969   31.4497   57.3530  C     
15   C        20.6339   32.3259   56.4961  C     
16   C        19.8753   33.1300   57.3722  C     
17   C        18.5979   32.6851   57.7999  C     
18   N        17.8863   33.4720   58.6589  N     
19   C        18.3572   34.6236   59.1207  C     
20   C        19.5948   35.0635   58.7511  C     
21   C        20.3393   34.3512   57.8802  C     
22   C        24.8835   30.5933   59.1665  C     
23   S        24.5362   32.2439   59.5042  S     
24   N        26.0462   32.4502   60.1557  N     
25   C        26.7526   31.3694   60.2001  C     
26   C        26.1277   30.3300   59.6159  C     
27   C        28.0824   31.3530   60.7830  C     
28   C        20.3138   29.7589   53.8789  C     
29   H        24.1012   28.2977   60.1101  H     
30   H        22.6998   26.7492   59.1480  H     
31   H        21.8885   30.7462   54.8490  H     
32   H        18.5035   29.7381   56.2168  H     
33   H        17.1781   31.1258   57.6617  H     
34   H        21.5579   32.6476   56.1969  H     
35   H        17.8000   35.1597   59.7454  H     
36   H        19.9493   35.9145   59.1283  H     
37   H        21.2353   34.6942   57.6170  H     
38   H        26.5702   29.4376   59.4958  H     
39   H        28.7579   31.9360   60.1507  H     
40   H        28.4694   30.3343   60.8826  H     
41   H        28.0496   31.8158   61.7731  H     
42   H        20.9877   29.1602   53.2634  H     
43   H        20.0245   30.6425   53.3045  H     
44   H        19.4203   29.1612   54.0728  H     
@<TRIPOS>BOND
     1    1    2 1
     2    1    4 1
     3    1   22 1
     4    2    3 2
     5    3    6 1
     6    4    5 1
     7    4   10 2
     8    5    6 2
     9    5    9 1
    10    6    7 1
    11    7    8 2
    12    8    9 1
    13    9   11 1
    14   11   12 1
    15   11   28 1
    16   12   13 2
    17   12   15 1
    18   13   14 1
    19   14   17 2
    20   15   16 2
    21   16   17 1
    22   16   21 1
    23   17   18 1
    24   18   19 2
    25   19   20 1
    26   20   21 2
    27   22   23 1
    28   22   26 2
    29   23   24 1
    30   24   25 2
    31   25   26 1
    32   25   27 1
    33    2   29 1
    34    3   30 1
    35   11   31 1
    36   13   32 1
    37   14   33 1
    38   15   34 1
    39   19   35 1
    40   20   36 1
    41   21   37 1
    42   26   38 1
    43   27   39 1
    44   27   40 1
    45   27   41 1
    46   28   42 1
    47   28   43 1
    48   28   44 1
@<TRIPOS>PROPERTY_DATA
  Total_Score	| 9.5910
  Crash		| -0.7301
  Polar		| 2.1674
  FragIndex	| 1
  FragRMSD	| 0.096

