@<TRIPOS>MOLECULE
BindingDB_8046
 34 36 0 0 0
SMALL
NO_CHARGES


@<TRIPOS>ATOM
1    C         5.1951   46.1313    1.4779  C     
2    C         6.4809   48.0389    1.3832  C     
3    C         5.3092   48.6665    1.8731  C     
4    N         6.3808   46.6959    1.1867  N     
5    C         4.8609   44.7083    1.3830  C     
6    C         7.7782   48.6765    1.0929  C     
7    S         4.1665   47.3864    2.0239  S     
8    C         4.9623   50.0041    2.2186  C     
9    C         5.8119   51.1314    2.1249  C     
10   C         5.3021   52.3957    2.4624  C     
11   C         3.1877   51.4544    2.9621  C     
12   N         3.6859   50.2337    2.6428  N     
13   N         4.0156   52.5273    2.8724  N     
14   N         1.9063   51.6676    3.3469  N     
15   C         0.8575   50.7918    3.4457  C     
16   C        -1.3112   50.3270    4.4999  C     
17   C        -0.1843   51.1498    4.3293  C     
18   C         0.7105   49.6065    2.6833  C     
19   C        -0.4198   48.7809    2.8502  C     
20   C        -1.4248   49.1314    3.7693  C     
21   F        -2.4585   48.3535    3.9354  F     
22   H         5.0017   44.3631    0.3587  H     
23   H         3.8217   44.5409    1.6741  H     
24   H         5.5100   44.1368    2.0485  H     
25   H         7.6651   49.4086    0.2926  H     
26   H         8.5215   47.9410    0.7778  H     
27   H         8.1528   49.1612    1.9923  H     
28   H         6.7817   51.0625    1.8271  H     
29   H         5.8926   53.2240    2.3917  H     
30   H         1.7054   52.5781    3.6174  H     
31   H        -2.0390   50.6005    5.1619  H     
32   H        -0.1189   52.0144    4.8683  H     
33   H         1.4063   49.3557    1.9789  H     
34   H        -0.5154   47.9219    2.3048  H     
@<TRIPOS>BOND
     1    1    4 2
     2    1    5 1
     3    1    7 1
     4    2    3 2
     5    2    4 1
     6    2    6 1
     7    3    7 1
     8    3    8 1
     9    8    9 1
    10    8   12 2
    11    9   10 2
    12   10   13 1
    13   11   12 1
    14   11   13 2
    15   11   14 1
    16   14   15 1
    17   15   17 1
    18   15   18 2
    19   16   17 2
    20   16   20 1
    21   18   19 1
    22   19   20 2
    23   20   21 1
    24    5   22 1
    25    5   23 1
    26    5   24 1
    27    6   25 1
    28    6   26 1
    29    6   27 1
    30    9   28 1
    31   10   29 1
    32   14   30 1
    33   16   31 1
    34   17   32 1
    35   18   33 1
    36   19   34 1
@<TRIPOS>PROPERTY_DATA
  Total_Score	| 7.4176
  Crash		| -0.8418
  Polar		| 3.0378
  FragIndex	| 1
  FragRMSD	| 0.169

