@<TRIPOS>MOLECULE
BindingDB_6763
 45 52 0 0 0
SMALL
NO_CHARGES


@<TRIPOS>ATOM
1    C         5.7267    9.7786   19.3962  C     
2    C         7.6446    9.2799   18.5439  C     
3    O         8.8305    9.4191   18.2994  O     
4    N         6.9903   10.1076   19.3232  N     
5    C         5.5120    8.6790   18.6116  C     
6    C         6.7635    8.3520   18.0549  C     
7    C         4.4893    6.8210   17.4446  C     
8    C         4.3594    7.9155   18.3115  C     
9    C         2.3856    6.8738   18.0263  C     
10   C         3.0109    7.9504   18.6800  C     
11   C         2.2589    8.7969   19.5202  C     
12   C         0.8845    8.5497   19.7064  C     
13   C         0.2640    7.4625   19.0621  C     
14   C         1.0091    6.6183   18.2184  C     
15   N         3.2971    6.2070   17.2786  N     
16   C         3.0905    5.0287   16.4764  C     
17   C         4.8527    3.3391   16.3849  C     
18   C         5.1068    4.5410   15.4582  C     
19   O         3.8099    5.1114   15.2431  O     
20   C         3.5982    3.7483   17.1771  C     
21   C         5.7402    6.4895   16.8748  C     
22   C         6.8845    7.2456   17.1784  C     
23   N         6.0433    5.4914   16.0140  N     
24   C         7.9306    6.6380   16.4773  C     
25   C         7.3756    5.5571   15.7723  C     
26   C         9.3118    6.9041   16.3902  C     
27   C         8.1945    4.7287   14.9726  C     
28   C         9.5735    4.9960   14.8856  C     
29   C        10.1294    6.0804   15.5909  C     
30   O         4.9158   10.4236   20.0383  O     
31   H         7.3836   10.8804   19.7594  H     
32   H         2.6783    9.5863   20.0010  H     
33   H         0.3353    9.1662   20.3089  H     
34   H        -0.7331    7.2896   19.2015  H     
35   H         0.5482    5.8331   17.7572  H     
36   H         2.0379    4.9114   16.2264  H     
37   H         4.6485    2.4442   15.7897  H     
38   H         5.7079    3.1345   17.0428  H     
39   H         5.4581    4.1978   14.4853  H     
40   H         3.8439    3.9282   18.2315  H     
41   H         2.8255    2.9786   17.1180  H     
42   H         9.7370    7.6703   16.9019  H     
43   H         7.8015    3.9326   14.4685  H     
44   H        10.1755    4.3936   14.3190  H     
45   H        11.1337    6.2627   15.5322  H     
@<TRIPOS>BOND
     1    1    4 1
     2    1    5 1
     3    1   30 2
     4    2    3 2
     5    2    4 1
     6    2    6 1
     7    5    6 2
     8    5    8 1
     9    6   22 1
    10    7    8 2
    11    7   15 1
    12    7   21 1
    13    8   10 1
    14    9   10 2
    15    9   14 1
    16    9   15 1
    17   10   11 1
    18   11   12 2
    19   12   13 1
    20   13   14 2
    21   15   16 1
    22   16   19 1
    23   16   20 1
    24   17   18 1
    25   17   20 1
    26   18   19 1
    27   18   23 1
    28   21   22 2
    29   21   23 1
    30   22   24 1
    31   23   25 1
    32   24   25 2
    33   24   26 1
    34   25   27 1
    35   26   29 2
    36   27   28 2
    37   28   29 1
    38    4   31 1
    39   11   32 1
    40   12   33 1
    41   13   34 1
    42   14   35 1
    43   16   36 1
    44   17   37 1
    45   17   38 1
    46   18   39 1
    47   20   40 1
    48   20   41 1
    49   26   42 1
    50   27   43 1
    51   28   44 1
    52   29   45 1
@<TRIPOS>PROPERTY_DATA
  Total_Score	| 7.7683
  Crash		| -0.6509
  Polar		| 2.1718
  FragIndex	| 1
  FragRMSD	| 0.782

