@<TRIPOS>MOLECULE
BindingDB_50245343
 56 60 0 0 0
SMALL
NO_CHARGES


@<TRIPOS>ATOM
1    C        10.5547    6.3259   15.8882  C     
2    C        10.1494    5.3326   14.9688  C     
3    C         8.7816    5.0196   14.8228  C     
4    C         9.5889    7.0006   16.6600  C     
5    C         8.2196    6.7167   16.4890  C     
6    C         7.8174    5.7188   15.5845  C     
7    N         6.4680    5.6069   15.6249  N     
8    C         7.0720    7.2451   17.0863  C     
9    C         6.0112    6.5354   16.5223  C     
10   C         4.6920    6.8194   16.9159  C     
11   C         4.3846    7.6664   18.0104  C     
12   C         6.7857    8.2753   18.0146  C     
13   C         5.4648    8.4950   18.4609  C     
14   C         5.5734    9.5875   19.2937  C     
15   N         6.8236    9.9743   19.3712  N     
16   C         7.5780    9.2092   18.6290  C     
17   O         4.6783   10.2872   19.7262  O     
18   O         8.7597    9.4561   18.4745  O     
19   C         3.0376    7.5862   18.5409  C     
20   C         2.2603    6.3731   18.5197  C     
21   C         0.9149    6.3568   18.9530  C     
22   C         0.3193    7.5188   19.4587  C     
23   C         1.0753    8.6964   19.5472  C     
24   C         2.4070    8.7265   19.0891  C     
25   O        11.8634    6.6527   16.0693  O     
26   C         5.6447    4.6355   14.9410  C     
27   C         4.5509    5.2567   13.9983  C     
28   Cl        2.8633    4.8476   18.0755  Cl    
29   C         3.0773    4.8417   14.3266  C     
30   O         4.6308    6.6931   13.9735  O     
31   N         2.5035    3.6156   13.6904  N     
32   C         2.7774    3.5000   12.2248  C     
33   C         2.7923    2.3473   14.4214  C     
34   H        10.8465    4.8329   14.4145  H     
35   H         8.4995    4.3145   14.1441  H     
36   H         9.9098    7.6819   17.3388  H     
37   H         3.9452    6.3369   16.4240  H     
38   H         7.1236   10.7615   19.8435  H     
39   H         0.3689    5.4952   18.9280  H     
40   H        -0.6499    7.5018   19.7869  H     
41   H         0.6488    9.5289   19.9518  H     
42   H         2.9029    9.6074   19.1552  H     
43   H        12.3683    6.3037   15.3032  H     
44   H         6.2699    3.9601   14.3425  H     
45   H         5.1908    3.9969   15.7065  H     
46   H         4.7740    4.9454   12.9713  H     
47   H         2.9595    4.7430   15.4091  H     
48   H         2.4196    5.6677   14.0455  H     
49   H         5.3047    6.8934   13.2887  H     
50   H         1.4897    3.7465   13.7611  H     
51   H         2.6135    4.4529   11.7175  H     
52   H         2.0824    2.7709   11.7841  H     
53   H         3.8017    3.1703   12.0294  H     
54   H         3.8604    2.0964   14.3638  H     
55   H         2.2147    1.5266   13.9870  H     
56   H         2.5065    2.4379   15.4767  H     
@<TRIPOS>BOND
     1    1    2 2
     2    1    4 1
     3    1   25 1
     4    2    3 1
     5    3    6 2
     6    4    5 2
     7    5    6 1
     8    5    8 1
     9    6    7 1
    10    7    9 1
    11    7   26 1
    12    8    9 2
    13    8   12 1
    14    9   10 1
    15   10   11 2
    16   11   13 1
    17   11   19 1
    18   12   13 2
    19   12   16 1
    20   13   14 1
    21   14   15 1
    22   14   17 2
    23   15   16 1
    24   16   18 2
    25   19   20 2
    26   19   24 1
    27   20   21 1
    28   20   28 1
    29   21   22 2
    30   22   23 1
    31   23   24 2
    32   26   27 1
    33   27   29 1
    34   27   30 1
    35   29   31 1
    36   31   32 1
    37   31   33 1
    38    2   34 1
    39    3   35 1
    40    4   36 1
    41   10   37 1
    42   15   38 1
    43   21   39 1
    44   22   40 1
    45   23   41 1
    46   24   42 1
    47   25   43 1
    48   26   44 1
    49   26   45 1
    50   27   46 1
    51   29   47 1
    52   29   48 1
    53   30   49 1
    54   31   50 1
    55   32   51 1
    56   32   52 1
    57   32   53 1
    58   33   54 1
    59   33   55 1
    60   33   56 1
@<TRIPOS>PROPERTY_DATA
  Total_Score	| 8.5850
  Crash		| -1.9862
  Polar		| 5.4132
  FragIndex	| 1
  FragRMSD	| 0.600

