@<TRIPOS>MOLECULE
BindingDB_50245342
 53 57 0 0 0
SMALL
NO_CHARGES


@<TRIPOS>ATOM
1    C        10.5420    6.6445   15.6748  C     
2    C        10.2666    5.3852   15.1036  C     
3    C         8.9786    4.8258   15.2090  C     
4    C         9.5246    7.3369   16.3625  C     
5    C         8.2451    6.7591   16.5018  C     
6    C         7.9624    5.5251   15.8988  C     
7    N         6.6598    5.2026   16.1071  N     
8    C         7.0709    7.1821   17.1376  C     
9    C         6.1083    6.1982   16.8658  C     
10   C         4.7879    6.3396   17.3445  C     
11   C         4.3661    7.5029   18.0424  C     
12   C         6.7095    8.2959   17.9293  C     
13   C         5.3763    8.4623   18.3493  C     
14   C         5.3605    9.6586   19.0300  C     
15   N         6.5783   10.1446   19.0704  N     
16   C         7.4102    9.3592   18.4342  C     
17   O         4.4100   10.2425   19.5280  O     
18   O         8.6094    9.5754   18.4018  O     
19   C         2.9875    7.6295   18.4339  C     
20   C         1.9063    7.0491   17.6999  C     
21   C         0.5788    7.1626   18.1589  C     
22   C         0.2898    7.8609   19.3374  C     
23   C         1.3314    8.4523   20.0629  C     
24   C         2.6595    8.3205   19.6275  C     
25   O        11.7719    7.2146   15.5640  O     
26   C         5.9928    4.0242   15.6028  C     
27   C         5.5588    4.1161   14.1082  C     
28   Cl        2.0765    6.2393   16.2180  Cl    
29   C         4.0543    4.4240   13.9058  C     
30   O         6.3098    5.1043   13.4120  O     
31   N         3.6660    4.7186   12.5025  N     
32   C         3.0404    3.6196   11.7457  C     
33   H        11.0010    4.8771   14.6067  H     
34   H         8.7946    3.9134   14.7919  H     
35   H         9.7261    8.2563   16.7385  H     
36   H         4.1222    5.5885   17.1682  H     
37   H         6.8344   10.9667   19.5206  H     
38   H        -0.1938    6.7519   17.6294  H     
39   H        -0.6768    7.9453   19.6598  H     
40   H         1.1183    8.9630   20.9179  H     
41   H         3.3927    8.7493   20.1939  H     
42   H        12.4064    6.4976   15.3390  H     
43   H         6.6535    3.1602   15.7195  H     
44   H         5.1195    3.7920   16.2137  H     
45   H         5.7755    3.1507   13.6492  H     
46   H         3.4591    3.5861   14.2733  H     
47   H         3.7959    5.3047   14.4954  H     
48   H         6.9879    4.6098   12.9064  H     
49   H         2.9921    5.4866   12.5208  H     
50   H         4.4859    5.0445   11.9814  H     
51   H         3.7278    2.7863   11.6202  H     
52   H         2.7701    3.9947   10.7576  H     
53   H         2.1352    3.2741   12.2440  H     
@<TRIPOS>BOND
     1    1    2 2
     2    1    4 1
     3    1   25 1
     4    2    3 1
     5    3    6 2
     6    4    5 2
     7    5    6 1
     8    5    8 1
     9    6    7 1
    10    7    9 1
    11    7   26 1
    12    8    9 2
    13    8   12 1
    14    9   10 1
    15   10   11 2
    16   11   13 1
    17   11   19 1
    18   12   13 2
    19   12   16 1
    20   13   14 1
    21   14   15 1
    22   14   17 2
    23   15   16 1
    24   16   18 2
    25   19   20 2
    26   19   24 1
    27   20   21 1
    28   20   28 1
    29   21   22 2
    30   22   23 1
    31   23   24 2
    32   26   27 1
    33   27   29 1
    34   27   30 1
    35   29   31 1
    36   31   32 1
    37    2   33 1
    38    3   34 1
    39    4   35 1
    40   10   36 1
    41   15   37 1
    42   21   38 1
    43   22   39 1
    44   23   40 1
    45   24   41 1
    46   25   42 1
    47   26   43 1
    48   26   44 1
    49   27   45 1
    50   29   46 1
    51   29   47 1
    52   30   48 1
    53   31   49 1
    54   31   50 1
    55   32   51 1
    56   32   52 1
    57   32   53 1
@<TRIPOS>PROPERTY_DATA
  Total_Score	| 8.3402
  Crash		| -2.4137
  Polar		| 6.4559
  FragIndex	| 1
  FragRMSD	| 0.800

