@<TRIPOS>MOLECULE
BindingDB_17054
 63 70 0 0 0
SMALL
NO_CHARGES


@<TRIPOS>ATOM
1    C         5.8028    9.6663   19.4178  C     
2    C         7.8395    9.1385   18.5292  C     
3    N         7.0664   10.0118   19.3338  N     
4    O         5.0013   10.3278   20.0543  O     
5    O         8.4106    9.8462   17.4313  O     
6    C         5.5785    8.5347   18.6871  C     
7    C         6.8104    8.1708   18.1228  C     
8    C         5.7772    6.2434   17.0120  C     
9    C         6.9015    7.0385   17.2808  C     
10   C         4.4192    7.7763   18.3925  C     
11   C         4.5304    6.6563   17.5480  C     
12   C         7.4352    5.3891   15.8513  C     
13   C         7.9476    6.4940   16.5516  C     
14   C         9.2980    6.8873   16.4466  C     
15   C         8.3159    4.6885   14.9882  C     
16   C         9.6605    5.0854   14.8514  C     
17   C        10.1534    6.1768   15.5874  C     
18   C         3.0700    7.8565   18.7450  C     
19   C         2.4142    6.8277   18.0518  C     
20   C         2.3422    8.6965   19.6159  C     
21   C         0.9597    8.4899   19.7882  C     
22   C         0.3032    7.4595   19.0885  C     
23   C         1.0241    6.6307   18.2095  C     
24   N         3.3120    6.1236   17.3194  N     
25   N         6.1161    5.2059   16.1841  N     
26   C         2.5068    5.0990   15.1361  C     
27   O         4.1027    3.9708   16.7112  O     
28   C         5.2515    4.0603   15.8460  C     
29   C         5.9501    2.7193   16.2519  C     
30   C         3.0336    4.9116   16.5927  C     
31   C         4.7237    3.9357   14.3667  C     
32   C         3.5336    4.8716   13.9771  C     
33   O         5.7944    4.1084   13.4166  O     
34   C         5.6191    3.5221   12.1160  C     
35   N         3.8928    6.1079   13.2270  N     
36   C         4.7379    7.0991   13.8973  C     
37   H         8.6207    8.6676   19.1298  H     
38   H         7.4318   10.7976   19.7715  H     
39   H         7.8741    9.6244   16.6420  H     
40   H         9.6696    7.6686   16.9836  H     
41   H         8.0071    3.8949   14.4370  H     
42   H        10.2839    4.5735   14.2222  H     
43   H        11.1340    6.4536   15.4969  H     
44   H         2.7909    9.4351   20.1488  H     
45   H         0.4302    9.0881   20.4267  H     
46   H        -0.7001    7.3130   19.2184  H     
47   H         0.5338    5.8922   17.7024  H     
48   H         1.6949    4.3782   14.9965  H     
49   H         2.0492    6.0870   15.0395  H     
50   H         6.8052    2.4879   15.6235  H     
51   H         5.2642    1.8722   16.1655  H     
52   H         6.2777    2.7607   17.2902  H     
53   H         2.2429    4.3964   17.1458  H     
54   H         4.3101    2.9198   14.2885  H     
55   H         2.9785    4.3241   13.2056  H     
56   H         5.5903    2.4314   12.2033  H     
57   H         6.4671    3.7999   11.4898  H     
58   H         4.7030    3.8807   11.6392  H     
59   H         4.3608    5.8480   12.3526  H     
60   H         3.0204    6.5723   12.9757  H     
61   H         4.6356    8.0645   13.4015  H     
62   H         5.7833    6.7971   13.8653  H     
63   H         4.4103    7.1849   14.9207  H     
@<TRIPOS>BOND
     1    1    3 1
     2    1    4 2
     3    1    6 1
     4    2    3 1
     5    2    5 1
     6    2    7 1
     7    6    7 2
     8    6   10 1
     9    7    9 1
    10    8    9 2
    11    8   11 1
    12    8   25 1
    13    9   13 1
    14   10   11 2
    15   10   18 1
    16   11   24 1
    17   12   13 2
    18   12   15 1
    19   12   25 1
    20   13   14 1
    21   14   17 2
    22   15   16 2
    23   16   17 1
    24   18   19 2
    25   18   20 1
    26   19   23 1
    27   19   24 1
    28   20   21 2
    29   21   22 1
    30   22   23 2
    31   24   30 1
    32   25   28 1
    33   26   30 1
    34   26   32 1
    35   27   28 1
    36   27   30 1
    37   28   29 1
    38   28   31 1
    39   31   32 1
    40   31   33 1
    41   32   35 1
    42   33   34 1
    43   35   36 1
    44    2   37 1
    45    3   38 1
    46    5   39 1
    47   14   40 1
    48   15   41 1
    49   16   42 1
    50   17   43 1
    51   20   44 1
    52   21   45 1
    53   22   46 1
    54   23   47 1
    55   26   48 1
    56   26   49 1
    57   29   50 1
    58   29   51 1
    59   29   52 1
    60   30   53 1
    61   31   54 1
    62   32   55 1
    63   34   56 1
    64   34   57 1
    65   34   58 1
    66   35   59 1
    67   35   60 1
    68   36   61 1
    69   36   62 1
    70   36   63 1
@<TRIPOS>PROPERTY_DATA
  Total_Score	| 12.3540
  Crash		| -0.9972
  Polar		| 5.0829
  FragIndex	| 1
  FragRMSD	| 0.938

