@<TRIPOS>MOLECULE
BindingDB_50280450
 63 70 0 0 0
SMALL
NO_CHARGES


@<TRIPOS>ATOM
1    C         5.2113    3.9519   15.9407  C     
2    N         6.0736    5.1104   16.2223  N     
3    N         3.2523    6.0371   17.3641  N     
4    C         5.7088    6.2107   16.9491  C     
5    C         4.4604    6.6211   17.4838  C     
6    O         3.9909    3.9308   16.7120  O     
7    C         2.9816    4.9236   16.5039  C     
8    C         5.4864    8.5976   18.4803  C     
9    C         4.3514    7.7708   18.2910  C     
10   C         6.8053    7.0708   17.1062  C     
11   C         6.6982    8.2593   17.8620  C     
12   C         5.7053    9.7763   19.1376  C     
13   N         6.9427   10.1724   18.9538  N     
14   C         7.3896    5.2889   15.8714  C     
15   C         2.3694    6.7318   18.1207  C     
16   C         4.7562    3.7610   14.4467  C     
17   C         7.7038    9.2904   18.1484  C     
18   C         7.8529    6.5073   16.3956  C     
19   C         3.0252    7.8139   18.7257  C     
20   C         2.7362    5.3646   15.0253  C     
21   C         3.7329    4.8364   13.9408  C     
22   O         4.9195   10.4426   19.7878  O     
23   O         5.8883    3.5989   13.5674  O     
24   C         5.8567    2.6431   16.5013  C     
25   O         8.8243    8.7913   18.8712  O     
26   N         4.2681    5.9369   13.0876  N     
27   C         8.3002    4.5122   15.1087  C     
28   C         0.9921    6.5148   18.3440  C     
29   C         9.1625    6.9765   16.1637  C     
30   C         2.3151    8.6784   19.5867  C     
31   C         5.2753    6.8716   13.6196  C     
32   C         0.9453    8.4564   19.8219  C     
33   C        10.0452    6.1915   15.4021  C     
34   C         9.6165    4.9593   14.8789  C     
35   C         0.2848    7.3797   19.1998  C     
36   C         5.6918    2.9792   12.2818  C     
37   H         2.0744    4.4260   16.8526  H     
38   H         7.2988   10.9958   19.3256  H     
39   H         4.2133    2.8059   14.4386  H     
40   H         8.0264    9.7954   17.2362  H     
41   H         1.7241    5.0614   14.7476  H     
42   H         2.7205    6.4562   14.9852  H     
43   H         3.1068    4.2991   13.2189  H     
44   H         6.7829    2.3810   16.0028  H     
45   H         5.1821    1.7909   16.3835  H     
46   H         6.0627    2.7515   17.5670  H     
47   H         8.4498    8.2902   19.6247  H     
48   H         4.6664    5.5292   12.2382  H     
49   H         3.4682    6.4958   12.7867  H     
50   H         8.0360    3.6224   14.6999  H     
51   H         0.4999    5.7350   17.9044  H     
52   H         9.4795    7.8752   16.5229  H     
53   H         2.7658    9.4540   20.0580  H     
54   H         5.3455    7.7276   12.9476  H     
55   H         6.2510    6.3911   13.6451  H     
56   H         5.0187    7.2377   14.6131  H     
57   H         0.4270    9.0801   20.4458  H     
58   H        10.9988    6.5161   15.2267  H     
59   H        10.2627    4.3884   14.3274  H     
60   H        -0.7120    7.2254   19.3715  H     
61   H         4.7473    2.4335   12.1917  H     
62   H         6.5132    2.2847   12.1082  H     
63   H         5.7291    3.7479   11.5077  H     
@<TRIPOS>BOND
     1    1    2 1
     2    1    6 1
     3    1   16 1
     4    1   24 1
     5    2    4 1
     6    2   14 1
     7    3    5 1
     8    3    7 1
     9    3   15 1
    10    4    5 1
    11    4   10 2
    12    5    9 2
    13    6    7 1
    14    7   20 1
    15    8    9 1
    16    8   11 2
    17    8   12 1
    18    9   19 1
    19   10   11 1
    20   10   18 1
    21   11   17 1
    22   12   13 1
    23   12   22 2
    24   13   17 1
    25   14   18 2
    26   14   27 1
    27   15   19 2
    28   15   28 1
    29   16   21 1
    30   16   23 1
    31   17   25 1
    32   18   29 1
    33   19   30 1
    34   20   21 1
    35   21   26 1
    36   23   36 1
    37   26   31 1
    38   27   34 2
    39   28   35 2
    40   29   33 2
    41   30   32 2
    42   32   35 1
    43   33   34 1
    44    7   37 1
    45   13   38 1
    46   16   39 1
    47   17   40 1
    48   20   41 1
    49   20   42 1
    50   21   43 1
    51   24   44 1
    52   24   45 1
    53   24   46 1
    54   25   47 1
    55   26   48 1
    56   26   49 1
    57   27   50 1
    58   28   51 1
    59   29   52 1
    60   30   53 1
    61   31   54 1
    62   31   55 1
    63   31   56 1
    64   32   57 1
    65   33   58 1
    66   34   59 1
    67   35   60 1
    68   36   61 1
    69   36   62 1
    70   36   63 1
@<TRIPOS>PROPERTY_DATA
  Total_Score	| 11.4066
  Crash		| -0.8324
  Polar		| 4.6062
  FragIndex	| 1
  FragRMSD	| 1.067

