@<TRIPOS>MOLECULE
BindingDB_50165270
 51 53 0 0 0
SMALL
NO_CHARGES


@<TRIPOS>ATOM
1    C         1.1117   10.4155   25.5780  C     
2    C         0.3081   11.1766   24.7391  C     
3    N         1.0478   11.6012   23.7129  N     
4    N         2.3428   10.3551   25.0248  N     
5    C         2.2922   11.1082   23.8960  C     
6    N         0.5974    9.8649   26.7093  N     
7    N        -1.5218   10.7772   26.2009  N     
8    C        -1.0503   11.3499   25.0561  C     
9    C        -0.7120   10.0498   27.0251  C     
10   C         6.6780   13.6876   24.6639  C     
11   C         5.3537   13.9909   25.0447  C     
12   C         6.9317   12.6569   23.7327  C     
13   C         3.3857   11.4403   22.9557  C     
14   C         4.5110   12.2197   23.5545  C     
15   C         1.6442    7.4233   23.9411  C     
16   C         0.5165    7.0849   24.1428  C     
17   C         5.8474   11.9515   23.1645  C     
18   C         4.2853   13.2554   24.4903  C     
19   N        -1.8588   12.0399   24.2432  N     
20   F        -1.1966    9.5335   28.1196  F     
21   C         3.4568    9.6313   25.5762  C     
22   O         7.7177   14.3623   25.2499  O     
23   O         5.1176   14.9254   26.0228  O     
24   O         8.2272   12.4120   23.3418  O     
25   C         2.9315    7.8128   23.6824  C     
26   C         8.1401   15.5227   24.5116  C     
27   C         8.6483   11.0434   23.4450  C     
28   C         4.5299   16.1550   25.5614  C     
29   C         3.7561    8.2368   24.9350  C     
30   H         3.7373   10.4926   22.5312  H     
31   H         2.9853   12.0401   22.1314  H     
32   H        -0.3539    6.8251   24.2948  H     
33   H         6.0321   11.2354   22.4617  H     
34   H         3.3311   13.4719   24.7909  H     
35   H        -2.8050   12.1208   24.4449  H     
36   H        -1.5079   12.4323   23.4268  H     
37   H         4.3507   10.2565   25.4959  H     
38   H         3.3026    9.4799   26.6448  H     
39   H         3.4366    6.9642   23.2010  H     
40   H         2.9212    8.6534   22.9680  H     
41   H         8.5895   15.2448   23.5566  H     
42   H         8.8910   16.0491   25.1029  H     
43   H         7.3118   16.2089   24.3288  H     
44   H         8.5189   10.6584   24.4599  H     
45   H         9.7089   10.9929   23.1932  H     
46   H         8.1033   10.4109   22.7411  H     
47   H         5.1977   16.6889   24.8815  H     
48   H         4.3466   16.7918   26.4286  H     
49   H         3.5739   15.9816   25.0620  H     
50   H         4.8114    8.2138   24.6384  H     
51   H         3.6408    7.4621   25.7033  H     
@<TRIPOS>BOND
     1    1    2 1
     2    1    4 1
     3    1    6 2
     4    2    3 1
     5    2    8 2
     6    3    5 2
     7    4    5 1
     8    4   21 1
     9    5   13 1
    10    6    9 1
    11    7    8 1
    12    7    9 2
    13    8   19 1
    14    9   20 1
    15   10   11 1
    16   10   12 2
    17   10   22 1
    18   11   18 2
    19   11   23 1
    20   12   17 1
    21   12   24 1
    22   13   14 1
    23   14   17 2
    24   14   18 1
    25   15   16 3
    26   15   25 1
    27   21   29 1
    28   22   26 1
    29   23   28 1
    30   24   27 1
    31   25   29 1
    32   13   30 1
    33   13   31 1
    34   16   32 1
    35   17   33 1
    36   18   34 1
    37   19   35 1
    38   19   36 1
    39   21   37 1
    40   21   38 1
    41   25   39 1
    42   25   40 1
    43   26   41 1
    44   26   42 1
    45   26   43 1
    46   27   44 1
    47   27   45 1
    48   27   46 1
    49   28   47 1
    50   28   48 1
    51   28   49 1
    52   29   50 1
    53   29   51 1
@<TRIPOS>PROPERTY_DATA
  Total_Score	| 10.8373
  Crash		| -0.8353
  Polar		| 2.4155
  FragIndex	| 1
  FragRMSD	| 0.499

