@<TRIPOS>MOLECULE
BindingDB_15374
 52 54 0 0 0
SMALL
NO_CHARGES


@<TRIPOS>ATOM
1    C        -1.0697   11.3957   25.0408  C     
2    C        -0.7851    9.9677   26.9290  C     
3    N         0.5210    9.7598   26.6132  N     
4    N        -1.5612   10.7730   26.1482  N     
5    N        -1.8554   12.1648   24.2728  N     
6    C         0.2804   11.1995   24.7170  C     
7    C         1.0547   10.3695   25.5193  C     
8    C         2.2711   11.1308   23.8843  C     
9    N         1.0401   11.6581   23.7177  N     
10   N         2.2854   10.3164   24.9744  N     
11   C         3.3959    9.5692   25.5042  C     
12   C         3.6952    8.3216   24.6283  C     
13   C         5.0639    7.6483   24.9199  C     
14   C         6.2888    8.5237   24.5573  C     
15   C         3.3811   11.4760   22.9548  C     
16   C         4.5249   12.1991   23.5824  C     
17   C         4.3047   13.2278   24.5259  C     
18   C         5.3704   13.9724   25.0662  C     
19   C         6.9427   12.6430   23.7449  C     
20   C         5.8609   11.9185   23.1981  C     
21   C         6.6957   13.6797   24.6690  C     
22   O         8.2277   12.4192   23.3114  O     
23   C         8.7810   11.1535   23.6992  C     
24   O         5.1494   14.9247   26.0283  O     
25   C         4.5760   16.1541   25.5439  C     
26   O         7.7440   14.3729   25.2153  O     
27   C         8.1536   15.5091   24.4333  C     
28   H        -1.1865    9.5141   27.7500  H     
29   H        -1.4910   12.5942   23.4849  H     
30   H        -2.7962   12.2605   24.4802  H     
31   H         4.2729   10.2199   25.5649  H     
32   H         3.1801    9.2280   26.5226  H     
33   H         2.9037    7.5854   24.8129  H     
34   H         3.6543    8.5838   23.5694  H     
35   H         5.1156    7.3624   25.9767  H     
36   H         5.1217    6.7268   24.3320  H     
37   H         6.2189    8.8652   23.5186  H     
38   H         7.2089    7.9386   24.6688  H     
39   H         6.3447    9.3923   25.2219  H     
40   H         3.7135   10.5574   22.4613  H     
41   H         2.9870   12.1265   22.1682  H     
42   H         3.3562   13.4444   24.8338  H     
43   H         6.0452   11.1933   22.4994  H     
44   H         8.7718   11.0281   24.7849  H     
45   H         9.8182   11.1253   23.3621  H     
46   H         8.2469   10.3281   23.2262  H     
47   H         5.2229   16.6361   24.8057  H     
48   H         4.4555   16.8349   26.3902  H     
49   H         3.5896   15.9886   25.1011  H     
50   H         8.5196   15.2067   23.4471  H     
51   H         8.9670   16.0123   24.9606  H     
52   H         7.3368   16.2216   24.3062  H     
@<TRIPOS>BOND
     1    1    4 1
     2    1    5 1
     3    1    6 2
     4    2    3 1
     5    2    4 2
     6    3    7 2
     7    6    7 1
     8    6    9 1
     9    7   10 1
    10    8    9 2
    11    8   10 1
    12    8   15 1
    13   10   11 1
    14   11   12 1
    15   12   13 1
    16   13   14 1
    17   15   16 1
    18   16   17 2
    19   16   20 1
    20   17   18 1
    21   18   21 2
    22   18   24 1
    23   19   20 2
    24   19   21 1
    25   19   22 1
    26   21   26 1
    27   22   23 1
    28   24   25 1
    29   26   27 1
    30    2   28 1
    31    5   29 1
    32    5   30 1
    33   11   31 1
    34   11   32 1
    35   12   33 1
    36   12   34 1
    37   13   35 1
    38   13   36 1
    39   14   37 1
    40   14   38 1
    41   14   39 1
    42   15   40 1
    43   15   41 1
    44   17   42 1
    45   20   43 1
    46   23   44 1
    47   23   45 1
    48   23   46 1
    49   25   47 1
    50   25   48 1
    51   25   49 1
    52   27   50 1
    53   27   51 1
    54   27   52 1
@<TRIPOS>PROPERTY_DATA
  Total_Score	| 10.3806
  Crash		| -0.7571
  Polar		| 2.3158
  FragIndex	| 1
  FragRMSD	| 0.101

