@<TRIPOS>MOLECULE
BindingDB_50165283
 56 58 0 0 0
SMALL
NO_CHARGES


@<TRIPOS>ATOM
1    N         1.0295   11.7403   23.7453  N     
2    C         0.2443   11.3222   24.7412  C     
3    C         2.2371   11.1623   23.9317  C     
4    N         2.2108   10.3382   25.0132  N     
5    C         0.9879   10.4772   25.5580  C     
6    C        -1.1123   11.5440   25.0492  C     
7    N         0.4283    9.8995   26.6544  N     
8    C         6.6913   13.6863   24.6527  C     
9    N        -1.6320   10.9483   26.1591  N     
10   C         6.9236   12.6622   23.7116  C     
11   C         5.3743   13.9774   25.0781  C     
12   C         3.3643   11.4494   23.0002  C     
13   C         4.5065   12.2058   23.5937  C     
14   C        -0.8767   10.1418   26.9602  C     
15   C         5.8333   11.9536   23.1677  C     
16   C         4.2974   13.2272   24.5495  C     
17   C         3.2311    9.4643   25.5130  C     
18   N        -1.8838   12.3133   24.2668  N     
19   O         7.7419   14.3625   25.2070  O     
20   O         8.2040   12.4440   23.2858  O     
21   O         5.1658   14.9271   26.0513  O     
22   C         2.9944    7.9864   25.1113  C     
23   O         1.5900    7.6509   25.1805  O     
24   C         1.1796    6.2638   25.0929  C     
25   C         8.1609   15.5175   24.4601  C     
26   C         4.5388   16.1417   25.5905  C     
27   C         8.7403   11.1360   23.5459  C     
28   C        -0.3353    6.2464   25.4319  C     
29   C         1.4472    5.6335   23.6983  C     
30   H         3.7046   10.4917   22.5829  H     
31   H         2.9927   12.0434   22.1562  H     
32   H        -1.2842    9.7187   27.8003  H     
33   H         6.0103   11.2474   22.4501  H     
34   H         3.3519   13.4346   24.8875  H     
35   H         4.2093    9.7583   25.1437  H     
36   H         3.2680    9.5353   26.6052  H     
37   H        -2.8232   12.4293   24.4709  H     
38   H        -1.5106   12.7208   23.4665  H     
39   H         3.3370    7.8389   24.0790  H     
40   H         3.5888    7.3345   25.7641  H     
41   H         1.6974    5.6741   25.8642  H     
42   H         8.5506   15.2443   23.4767  H     
43   H         8.9587   16.0112   25.0189  H     
44   H         7.3415   16.2313   24.3369  H     
45   H         5.1508   16.6522   24.8419  H     
46   H         4.4226   16.8087   26.4503  H     
47   H         3.5472   15.9528   25.1738  H     
48   H         8.5841   10.8147   24.5831  H     
49   H         9.8158   11.1709   23.3683  H     
50   H         8.3027   10.3998   22.8657  H     
51   H        -0.5056    6.6626   26.4315  H     
52   H        -0.7282    5.2229   25.4057  H     
53   H        -0.8855    6.8518   24.7052  H     
54   H         0.9635    6.2281   22.9201  H     
55   H         1.0584    4.6109   23.6688  H     
56   H         2.5225    5.5968   23.4993  H     
@<TRIPOS>BOND
     1    1    2 1
     2    1    3 2
     3    2    5 1
     4    2    6 2
     5    3    4 1
     6    3   12 1
     7    4    5 1
     8    4   17 1
     9    5    7 2
    10    6    9 1
    11    6   18 1
    12    7   14 1
    13    8   10 2
    14    8   11 1
    15    8   19 1
    16    9   14 2
    17   10   15 1
    18   10   20 1
    19   11   16 2
    20   11   21 1
    21   12   13 1
    22   13   15 2
    23   13   16 1
    24   17   22 1
    25   19   25 1
    26   20   27 1
    27   21   26 1
    28   22   23 1
    29   23   24 1
    30   24   28 1
    31   24   29 1
    32   12   30 1
    33   12   31 1
    34   14   32 1
    35   15   33 1
    36   16   34 1
    37   17   35 1
    38   17   36 1
    39   18   37 1
    40   18   38 1
    41   22   39 1
    42   22   40 1
    43   24   41 1
    44   25   42 1
    45   25   43 1
    46   25   44 1
    47   26   45 1
    48   26   46 1
    49   26   47 1
    50   27   48 1
    51   27   49 1
    52   27   50 1
    53   28   51 1
    54   28   52 1
    55   28   53 1
    56   29   54 1
    57   29   55 1
    58   29   56 1
@<TRIPOS>PROPERTY_DATA
  Total_Score	| 11.5681
  Crash		| -0.7060
  Polar		| 2.3145
  FragIndex	| 1
  FragRMSD	| 0.220

