@<TRIPOS>MOLECULE
BindingDB_50165297
 51 53 0 0 0
SMALL
NO_CHARGES


@<TRIPOS>ATOM
1    N        -1.6400   10.8513   26.1465  N     
2    C        -0.8762   10.1004   26.9895  C     
3    N         0.4450    9.8999   26.7214  N     
4    C        -1.1202   11.4302   25.0306  C     
5    N        -1.8974   12.1532   24.2120  N     
6    C         0.2417   11.2323   24.7535  C     
7    C         1.0079   10.4539   25.6124  C     
8    N         2.2569   10.4068   25.1072  N     
9    C         2.2487   11.1516   23.9670  C     
10   N         1.0155   11.6523   23.7528  N     
11   C         3.3762    9.7228   25.6993  C     
12   C         3.7816    8.4181   24.9398  C     
13   C         5.3104    8.2492   24.6515  C     
14   C         5.6327    8.3860   23.3260  C     
15   C         5.9066    8.5254   22.1713  C     
16   C         3.3542   11.4524   23.0242  C     
17   C         4.5074   12.1961   23.6092  C     
18   C         4.3002   13.2377   24.5415  C     
19   C         5.3803   13.9845   25.0551  C     
20   C         6.6988   13.6822   24.6474  C     
21   C         6.9349   12.6487   23.7133  C     
22   C         5.8316   11.9385   23.1832  C     
23   O         7.7536   14.3604   25.1987  O     
24   C         8.1950   15.4746   24.3994  C     
25   O         5.1646   14.9540   25.9998  O     
26   C         4.5835   16.1702   25.4906  C     
27   O         8.2327   12.4258   23.3066  O     
28   C         8.7265   11.0820   23.4491  C     
29   H        -1.3012    9.6808   27.8183  H     
30   H        -1.5212   12.5633   23.4160  H     
31   H        -2.8433   12.2418   24.3981  H     
32   H         4.2008   10.4320   25.7430  H     
33   H         3.1554    9.4594   26.7391  H     
34   H         3.4623    7.5605   25.5427  H     
35   H         3.2044    8.3507   24.0118  H     
36   H         5.9045    8.9772   25.2072  H     
37   H         5.6404    7.2568   24.9718  H     
38   H         6.1156    8.6397   21.2805  H     
39   H         3.6773   10.5118   22.5754  H     
40   H         2.9673   12.0683   22.2091  H     
41   H         3.3502   13.4570   24.8530  H     
42   H         6.0037   11.2297   22.4667  H     
43   H         8.5454   15.1485   23.4139  H     
44   H         9.0261   15.9621   24.9166  H     
45   H         7.3899   16.2082   24.2736  H     
46   H         5.2451   16.6537   24.7620  H     
47   H         4.4342   16.8516   26.3315  H     
48   H         3.6089   15.9845   25.0289  H     
49   H         8.5469   10.6943   24.4570  H     
50   H         9.8055   11.0791   23.2650  H     
51   H         8.2545   10.4310   22.7110  H     
@<TRIPOS>BOND
     1    1    2 2
     2    1    4 1
     3    2    3 1
     4    3    7 2
     5    4    5 1
     6    4    6 2
     7    6    7 1
     8    6   10 1
     9    7    8 1
    10    8    9 1
    11    8   11 1
    12    9   10 2
    13    9   16 1
    14   11   12 1
    15   12   13 1
    16   13   14 1
    17   14   15 3
    18   16   17 1
    19   17   18 2
    20   17   22 1
    21   18   19 1
    22   19   20 2
    23   19   25 1
    24   20   21 1
    25   20   23 1
    26   21   22 2
    27   21   27 1
    28   23   24 1
    29   25   26 1
    30   27   28 1
    31    2   29 1
    32    5   30 1
    33    5   31 1
    34   11   32 1
    35   11   33 1
    36   12   34 1
    37   12   35 1
    38   13   36 1
    39   13   37 1
    40   15   38 1
    41   16   39 1
    42   16   40 1
    43   18   41 1
    44   22   42 1
    45   24   43 1
    46   24   44 1
    47   24   45 1
    48   26   46 1
    49   26   47 1
    50   26   48 1
    51   28   49 1
    52   28   50 1
    53   28   51 1
@<TRIPOS>PROPERTY_DATA
  Total_Score	| 10.3617
  Crash		| -0.7857
  Polar		| 2.4089
  FragIndex	| 1
  FragRMSD	| 0.154

