@<TRIPOS>MOLECULE
BindingDB_30545
 57 60 0 0 0
SMALL
NO_CHARGES


@<TRIPOS>ATOM
1    C        33.0525   45.7454   61.2715  C     
2    O        32.9076   44.4576   60.6223  O     
3    C        33.0696   44.4915   59.2612  C     
4    C        33.7791   43.4538   58.6190  C     
5    C        33.9738   43.4811   57.2204  C     
6    C        33.4617   44.5481   56.4536  C     
7    N        33.6349   44.5618   55.1013  N     
8    C        33.1596   45.4025   54.1389  C     
9    N        32.4038   46.4704   54.5437  N     
10   S        32.1247   46.8805   56.1546  S     
11   O        30.5699   47.0359   56.4416  O     
12   O        32.9566   48.1736   56.5681  O     
13   C        32.7316   45.5656   57.0965  C     
14   C        32.5185   45.5297   58.4832  C     
15   C        33.3624   45.1049   52.7563  C     
16   C        32.7572   45.8455   51.7761  C     
17   O        32.2624   47.0582   52.0139  O     
18   C        32.7270   45.4068   50.4724  C     
19   N        33.4547   44.3865   50.1743  N     
20   N        34.2065   43.7315   50.9991  N     
21   C        34.9999   42.6796   50.4039  C     
22   C        36.2196   43.2134   49.6051  C     
23   C        37.3007   43.9834   50.4321  C     
24   C        38.5534   44.2801   49.5583  C     
25   C        37.7184   43.2425   51.7349  C     
26   C        34.1252   44.0197   52.3117  C     
27   O        34.6706   43.2541   53.1027  O     
28   C        31.6928   45.7167   49.5925  C     
29   C        30.6902   44.7488   49.3145  C     
30   C        29.5935   45.0685   48.4954  C     
31   C        29.4775   46.3493   47.9400  C     
32   C        30.4748   47.3136   48.1855  C     
33   C        31.5756   46.9966   49.0070  C     
34   H        33.1541   45.5670   62.3418  H     
35   H        32.1647   46.3666   61.1238  H     
36   H        33.9285   46.2862   60.9297  H     
37   H        34.1397   42.6678   59.1586  H     
38   H        34.4817   42.7211   56.7605  H     
39   H        31.9825   47.0177   53.8603  H     
40   H        31.9667   46.2585   58.9317  H     
41   H        31.2924   46.9707   51.8373  H     
42   H        35.3736   41.9579   51.1315  H     
43   H        34.3655   42.1017   49.7278  H     
44   H        36.6969   42.3638   49.1062  H     
45   H        35.8477   43.8730   48.8144  H     
46   H        36.8844   44.9558   50.7160  H     
47   H        38.2694   44.8363   48.6624  H     
48   H        39.2786   44.8797   50.1176  H     
49   H        39.0351   43.3468   49.2547  H     
50   H        36.8757   43.1507   52.4170  H     
51   H        38.5085   43.7948   52.2611  H     
52   H        38.0927   42.2493   51.5041  H     
53   H        30.7280   43.8186   49.7376  H     
54   H        28.8592   44.3731   48.3326  H     
55   H        28.6663   46.5700   47.3548  H     
56   H        30.3916   48.2450   47.7741  H     
57   H        32.2782   47.7187   49.1869  H     
@<TRIPOS>BOND
     1    1    2 1
     2    2    3 1
     3    3    4 ar
     4    4    5 ar
     5    5    6 ar
     6    6    7 1
     7    7    8 2
     8    8    9 1
     9    9   10 1
    10   10   11 2
    11   10   12 2
    12   10   13 1
    13    6   13 ar
    14   13   14 ar
    15    3   14 ar
    16    8   15 1
    17   15   16 2
    18   16   17 1
    19   16   18 1
    20   18   19 2
    21   19   20 1
    22   20   21 1
    23   21   22 1
    24   22   23 1
    25   23   24 1
    26   23   25 1
    27   20   26 1
    28   15   26 1
    29   26   27 2
    30   18   28 1
    31   28   29 ar
    32   29   30 ar
    33   30   31 ar
    34   31   32 ar
    35   32   33 ar
    36   28   33 ar
    37    1   34 1
    38    1   35 1
    39    1   36 1
    40    4   37 1
    41    5   38 1
    42    9   39 1
    43   14   40 1
    44   17   41 1
    45   21   42 1
    46   21   43 1
    47   22   44 1
    48   22   45 1
    49   23   46 1
    50   24   47 1
    51   24   48 1
    52   24   49 1
    53   25   50 1
    54   25   51 1
    55   25   52 1
    56   29   53 1
    57   30   54 1
    58   31   55 1
    59   32   56 1
    60   33   57 1
@<TRIPOS>PROPERTY_DATA
  Total_Score	| 7.5382
  Crash		| -1.6738
  Polar		| 1.1777
  FragIndex	| 1
  FragRMSD	| 0.586

