@<TRIPOS>MOLECULE
BindingDB_30410
 56 59 0 0 0
SMALL
NO_CHARGES


@<TRIPOS>ATOM
1    N        33.3597   44.5343   49.8935  N     
2    C        32.6077   45.5852   50.3035  C     
3    C        32.6305   45.9839   51.6288  C     
4    N        34.1649   43.8716   50.7457  N     
5    C        34.0910   44.1781   52.0688  C     
6    C        33.2938   45.2331   52.5477  C     
7    O        34.7091   43.4780   52.8630  O     
8    C        35.0517   42.8262   50.2352  C     
9    C        36.3060   43.3693   49.4921  C     
10   C        37.3589   44.1258   50.3702  C     
11   C        37.7630   43.3434   51.6559  C     
12   C        38.6273   44.4437   49.5323  C     
13   O        31.9924   47.1113   51.9426  O     
14   C        33.1069   45.4581   53.9387  C     
15   S        31.9087   46.6729   56.0134  S     
16   N        32.2172   46.3817   54.3875  N     
17   N        33.7147   44.6460   54.8492  N     
18   C        33.5362   44.5352   56.1872  C     
19   C        32.6780   45.3973   56.8986  C     
20   O        32.4738   48.0850   56.4927  O     
21   O        30.3445   46.5401   56.2749  O     
22   C        32.3947   45.1668   58.2576  C     
23   C        34.1223   43.4445   56.8571  C     
24   C        33.8135   43.1933   58.2065  C     
25   C        32.9559   44.0514   58.9272  C     
26   C        31.8270   46.0488   49.2487  C     
27   C        32.1031   45.2246   48.1697  C     
28   C        33.0611   44.3119   48.5883  C     
29   N        32.6836   43.7306   60.2185  N     
30   S        32.0732   44.7916   61.3781  S     
31   C        32.7483   46.4585   61.2459  C     
32   O        30.4844   44.7895   61.4031  O     
33   O        32.5736   44.2422   62.7858  O     
34   H        35.4046   42.1429   51.0116  H     
35   H        34.4803   42.1903   49.5568  H     
36   H        36.8000   42.5147   49.0106  H     
37   H        35.9684   44.0346   48.6974  H     
38   H        36.9248   45.0811   50.6768  H     
39   H        36.9106   43.2243   52.3235  H     
40   H        38.5394   43.8941   52.2029  H     
41   H        38.1489   42.3468   51.4030  H     
42   H        39.1225   43.5193   49.2131  H     
43   H        39.3396   45.0287   50.1225  H     
44   H        38.3650   45.0253   48.6472  H     
45   H        31.0724   47.0048   51.6223  H     
46   H        31.7055   46.8924   53.7381  H     
47   H        31.7327   45.7812   58.7367  H     
48   H        34.7307   42.7964   56.3543  H     
49   H        34.2129   42.3673   58.6583  H     
50   H        31.1475   46.8112   49.2674  H     
51   H        31.6589   45.2669   47.2462  H     
52   H        33.4278   43.5654   47.9949  H     
53   H        32.9436   42.8499   60.5290  H     
54   H        33.8357   46.4108   61.3072  H     
55   H        32.3549   47.0779   62.0515  H     
56   H        32.4700   46.8987   60.2867  H     
@<TRIPOS>BOND
     1    1    2 1
     2    1    4 1
     3    1   28 1
     4    2    3 1
     5    2   26 2
     6    3    6 2
     7    3   13 1
     8    4    5 1
     9    4    8 1
    10    5    6 1
    11    5    7 2
    12    6   14 1
    13    8    9 1
    14    9   10 1
    15   10   11 1
    16   10   12 1
    17   14   16 1
    18   14   17 2
    19   15   16 1
    20   15   19 1
    21   15   20 2
    22   15   21 2
    23   17   18 1
    24   18   19 2
    25   18   23 1
    26   19   22 1
    27   22   25 2
    28   23   24 2
    29   24   25 1
    30   25   29 1
    31   26   27 1
    32   27   28 2
    33   29   30 1
    34   30   31 1
    35   30   32 2
    36   30   33 2
    37    8   34 1
    38    8   35 1
    39    9   36 1
    40    9   37 1
    41   10   38 1
    42   11   39 1
    43   11   40 1
    44   11   41 1
    45   12   42 1
    46   12   43 1
    47   12   44 1
    48   13   45 1
    49   16   46 1
    50   22   47 1
    51   23   48 1
    52   24   49 1
    53   26   50 1
    54   27   51 1
    55   28   52 1
    56   29   53 1
    57   31   54 1
    58   31   55 1
    59   31   56 1
@<TRIPOS>PROPERTY_DATA
  Total_Score	| 9.0644
  Crash		| -2.0538
  Polar		| 3.4714
  FragIndex	| 1
  FragRMSD	| 0.589

