@<TRIPOS>MOLECULE
BindingDB_30414
 60 64 0 0 0
SMALL
NO_CHARGES


@<TRIPOS>ATOM
1    N        33.3423   44.5258   49.9138  N     
2    C        32.5965   45.5856   50.3110  C     
3    C        32.5795   45.9650   51.6433  C     
4    N        34.1317   43.8492   50.7744  N     
5    C        34.1283   44.2339   52.0741  C     
6    C        33.2670   45.2300   52.5542  C     
7    O        34.9902   43.7743   52.8245  O     
8    C        34.9343   42.7196   50.3065  C     
9    C        36.2412   43.1399   49.5635  C     
10   C        37.2934   43.9146   50.4293  C     
11   C        37.7680   43.1068   51.6737  C     
12   C        38.5282   44.3097   49.5678  C     
13   O        31.7974   46.9946   51.9612  O     
14   C        33.0485   45.3832   53.9439  C     
15   S        32.3595   46.8623   56.0830  S     
16   N        32.6688   46.5792   54.4534  N     
17   N        33.2076   44.3019   54.7649  N     
18   C        33.1092   44.2606   56.1205  C     
19   C        32.7167   45.3728   56.8929  C     
20   O        30.8246   47.2198   56.3007  O     
21   O        33.3371   47.9879   56.6324  O     
22   C        32.6228   45.2708   58.2927  C     
23   C        33.4273   43.0493   56.7668  C     
24   C        33.3454   42.9488   58.1667  C     
25   C        32.9449   44.0567   58.9433  C     
26   C        31.8781   46.0907   49.2323  C     
27   C        32.1997   45.2932   48.1461  C     
28   C        33.1086   44.3426   48.5879  C     
29   N        32.9076   43.8660   60.2928  N     
30   S        32.3803   44.9662   61.4545  S     
31   C        30.5805   45.1655   61.4468  C     
32   O        32.8813   44.3911   62.8490  O     
33   O        33.1404   46.3550   61.2926  O     
34   C        29.7569   44.0147   62.0379  C     
35   C        29.8469   45.3587   62.7790  C     
36   H        35.1860   42.0253   51.1174  H     
37   H        34.3271   42.1176   49.6288  H     
38   H        36.7091   42.2310   49.1688  H     
39   H        35.9582   43.7662   48.7047  H     
40   H        36.8357   44.8535   50.7702  H     
41   H        36.9341   42.9078   52.3521  H     
42   H        38.5215   43.6714   52.2351  H     
43   H        38.1931   42.1490   51.3611  H     
44   H        39.0242   43.4191   49.1865  H     
45   H        39.2423   44.8760   50.1671  H     
46   H        38.2265   44.9354   48.7235  H     
47   H        30.9529   46.5821   52.2552  H     
48   H        33.4502   43.4644   54.3400  H     
49   H        32.3212   46.0879   58.8219  H     
50   H        33.7228   42.2304   56.2241  H     
51   H        33.5794   42.0584   58.6122  H     
52   H        31.2190   46.8699   49.2423  H     
53   H        31.8328   45.3873   47.1928  H     
54   H        33.5217   43.6244   47.9844  H     
55   H        33.1192   42.9742   60.6141  H     
56   H        30.1232   45.6450   60.5808  H     
57   H        28.7994   43.8146   61.5569  H     
58   H        30.3004   43.1904   62.5053  H     
59   H        30.4430   45.3420   63.6935  H     
60   H        28.9515   45.9811   62.7373  H     
@<TRIPOS>BOND
     1    1    2 1
     2    1    4 1
     3    1   28 1
     4    2    3 1
     5    2   26 2
     6    3    6 2
     7    3   13 1
     8    4    5 1
     9    4    8 1
    10    5    6 1
    11    5    7 2
    12    6   14 1
    13    8    9 1
    14    9   10 1
    15   10   11 1
    16   10   12 1
    17   14   16 2
    18   14   17 1
    19   15   16 1
    20   15   19 1
    21   15   20 2
    22   15   21 2
    23   17   18 1
    24   18   19 2
    25   18   23 1
    26   19   22 1
    27   22   25 2
    28   23   24 2
    29   24   25 1
    30   25   29 1
    31   26   27 1
    32   27   28 2
    33   29   30 1
    34   30   31 1
    35   30   32 2
    36   30   33 2
    37   31   34 1
    38   31   35 1
    39   34   35 1
    40    8   36 1
    41    8   37 1
    42    9   38 1
    43    9   39 1
    44   10   40 1
    45   11   41 1
    46   11   42 1
    47   11   43 1
    48   12   44 1
    49   12   45 1
    50   12   46 1
    51   13   47 1
    52   17   48 1
    53   22   49 1
    54   23   50 1
    55   24   51 1
    56   26   52 1
    57   27   53 1
    58   28   54 1
    59   29   55 1
    60   31   56 1
    61   34   57 1
    62   34   58 1
    63   35   59 1
    64   35   60 1
@<TRIPOS>PROPERTY_DATA
  Total_Score	| 9.3681
  Crash		| -1.7520
  Polar		| 3.2678
  FragIndex	| 1
  FragRMSD	| 0.189

