@<TRIPOS>MOLECULE
BindingDB_30466
 60 63 0 0 0
SMALL
NO_CHARGES


@<TRIPOS>ATOM
1    C        32.0964   45.7656   50.2301  C     
2    C        32.0489   46.1114   51.5704  C     
3    N        33.2663   43.7963   50.7374  N     
4    C        33.0289   44.0406   52.0533  C     
5    C        32.5506   45.2830   52.5423  C     
6    O        33.0885   43.0625   52.7955  O     
7    O        31.4980   47.3012   51.7440  O     
8    C        32.6155   45.5908   53.9386  C     
9    S        31.9717   46.9503   56.2079  S     
10   C        32.0399   46.6739   54.5270  C     
11   N        33.2576   44.7170   54.7739  N     
12   C        33.1727   44.5581   56.1179  C     
13   C        32.5189   45.4943   56.9430  C     
14   O        32.9772   48.1246   56.5753  O     
15   O        30.4837   47.3082   56.6392  O     
16   C        32.3691   45.2740   58.3233  C     
17   C        33.7152   43.3968   56.7051  C     
18   C        33.5750   43.1734   58.0876  C     
19   C        32.9024   44.1063   58.9172  C     
20   N        32.8046   43.7953   60.2385  N     
21   S        32.2013   44.7809   61.4694  S     
22   C        32.7676   46.4931   61.4550  C     
23   O        30.6215   44.6592   61.5911  O     
24   O        32.7722   44.1995   62.8355  O     
25   C        31.5353   46.4059   49.1257  C     
26   C        31.8314   45.6325   48.0232  C     
27   C        32.5697   44.5504   48.4898  C     
28   N        32.7189   44.6337   49.8373  N     
29   C        34.0355   42.6296   50.3061  C     
30   C        35.4934   42.5421   50.8552  C     
31   C        36.6761   43.2092   50.0656  C     
32   C        36.9462   44.6659   50.5566  C     
33   C        37.9766   42.3717   50.3343  C     
34   C        36.4043   43.2290   48.5268  C     
35   H        30.5409   47.1252   51.8657  H     
36   H        31.5609   47.3585   54.0215  H     
37   H        33.7892   44.0285   54.3570  H     
38   H        31.8682   45.9721   58.8765  H     
39   H        34.1835   42.6930   56.1250  H     
40   H        33.9631   42.3204   58.4919  H     
41   H        33.0435   42.8925   60.4979  H     
42   H        33.8499   46.5166   61.5498  H     
43   H        32.3165   47.0225   62.2998  H     
44   H        32.4730   46.9883   60.5306  H     
45   H        31.0061   47.2855   49.1254  H     
46   H        31.5370   45.8107   47.0616  H     
47   H        32.9053   43.8173   47.8678  H     
48   H        33.4990   41.7266   50.6171  H     
49   H        34.0906   42.5452   49.2232  H     
50   H        35.5154   42.9307   51.8711  H     
51   H        35.7049   41.4736   50.9314  H     
52   H        36.1191   45.3249   50.3302  H     
53   H        37.8360   45.0812   50.0742  H     
54   H        37.1080   44.6739   51.6363  H     
55   H        38.2294   42.3755   51.3989  H     
56   H        38.8260   42.7797   49.7823  H     
57   H        37.8402   41.3333   50.0298  H     
58   H        36.0725   42.2515   48.1880  H     
59   H        37.2995   43.5079   47.9701  H     
60   H        35.6279   43.9548   48.2700  H     
@<TRIPOS>BOND
     1    1    2 1
     2    1   25 2
     3    1   28 1
     4    2    5 2
     5    2    7 1
     6    3    4 1
     7    3   28 1
     8    3   29 1
     9    4    5 1
    10    4    6 2
    11    5    8 1
    12    8   10 2
    13    8   11 1
    14    9   10 1
    15    9   13 1
    16    9   14 2
    17    9   15 2
    18   11   12 1
    19   12   13 2
    20   12   17 1
    21   13   16 1
    22   16   19 2
    23   17   18 2
    24   18   19 1
    25   19   20 1
    26   20   21 1
    27   21   22 1
    28   21   23 2
    29   21   24 2
    30   25   26 1
    31   26   27 2
    32   27   28 1
    33   29   30 1
    34   30   31 1
    35   31   32 1
    36   31   33 1
    37   31   34 1
    38    7   35 1
    39   10   36 1
    40   11   37 1
    41   16   38 1
    42   17   39 1
    43   18   40 1
    44   20   41 1
    45   22   42 1
    46   22   43 1
    47   22   44 1
    48   25   45 1
    49   26   46 1
    50   27   47 1
    51   29   48 1
    52   29   49 1
    53   30   50 1
    54   30   51 1
    55   32   52 1
    56   32   53 1
    57   32   54 1
    58   33   55 1
    59   33   56 1
    60   33   57 1
    61   34   58 1
    62   34   59 1
    63   34   60 1
@<TRIPOS>PROPERTY_DATA
  Total_Score	| 6.3442
  Crash		| -4.6079
  Polar		| 3.3297
  FragIndex	| 1
  FragRMSD	| 0.438

