@<TRIPOS>MOLECULE
BindingDB_30416
 62 65 0 0 0
SMALL
NO_CHARGES


@<TRIPOS>ATOM
1    N        33.4696   44.1641   50.0623  N     
2    C        32.7968   45.3020   50.3695  C     
3    C        32.7295   45.7386   51.6737  C     
4    N        34.0983   43.4394   51.0086  N     
5    C        33.9319   43.8081   52.2998  C     
6    C        33.2079   44.9418   52.6750  C     
7    O        34.5379   43.1957   53.1786  O     
8    C        34.8758   42.2618   50.6187  C     
9    C        36.2437   42.5005   49.8989  C     
10   C        37.1987   43.6760   50.3355  C     
11   C        36.4621   45.0396   50.1533  C     
12   C        37.6903   43.4922   51.8133  C     
13   O        32.1411   46.9165   51.8681  O     
14   C        32.9789   45.2791   54.0408  C     
15   S        32.3398   47.1056   55.9281  S     
16   N        32.6545   46.5477   54.3715  N     
17   N        33.1056   44.3346   55.0217  N     
18   C        33.0482   44.5232   56.3791  C     
19   C        32.6764   45.7563   56.9558  C     
20   O        30.8239   47.5585   56.1111  O     
21   O        33.3851   48.2321   56.3278  O     
22   C        32.6610   45.9284   58.3497  C     
23   C        33.4305   43.4692   57.2282  C     
24   C        33.4538   43.6526   58.6323  C     
25   C        33.0653   44.8824   59.2063  C     
26   C        32.2127   45.8280   49.2209  C     
27   C        32.5346   44.9615   48.1881  C     
28   C        33.3076   43.9477   48.7264  C     
29   N        33.0833   45.0769   60.5695  N     
30   S        31.8538   44.3615   61.4850  S     
31   C        30.3745   45.3643   61.6799  C     
32   O        31.4306   42.9473   60.8900  O     
33   O        32.4269   43.9993   62.9224  O     
34   C        38.4469   43.6921   49.3940  C     
35   C        33.7438   46.2240   61.1367  C     
36   H        35.0978   41.6117   51.4690  H     
37   H        34.2549   41.6404   49.9610  H     
38   H        36.8056   41.5684   50.0191  H     
39   H        36.0489   42.5975   48.8301  H     
40   H        36.1243   45.1208   49.1118  H     
41   H        37.1593   45.8797   50.3289  H     
42   H        35.5945   45.1174   50.8025  H     
43   H        36.8625   43.5042   52.5187  H     
44   H        38.3803   44.2953   52.0985  H     
45   H        38.2202   42.5395   51.9295  H     
46   H        31.2044   46.7047   52.0538  H     
47   H        33.3119   43.4252   54.7315  H     
48   H        32.3823   46.8303   58.7373  H     
49   H        33.7181   42.5720   56.8405  H     
50   H        33.7787   42.8856   59.2265  H     
51   H        31.6155   46.6572   49.1645  H     
52   H        32.2241   45.0449   47.2146  H     
53   H        33.6559   43.1550   48.2014  H     
54   H        30.6207   46.3009   62.1848  H     
55   H        29.6461   44.8164   62.2778  H     
56   H        29.9461   45.5849   60.7028  H     
57   H        39.0165   42.7814   49.5184  H     
58   H        39.0955   44.5340   49.6122  H     
59   H        38.1314   43.7625   48.3577  H     
60   H        34.7233   46.3789   60.6674  H     
61   H        33.9113   46.1002   62.2116  H     
62   H        33.1451   47.1308   60.9940  H     
@<TRIPOS>BOND
     1    1    2 1
     2    1    4 1
     3    1   28 1
     4    2    3 1
     5    2   26 2
     6    3    6 2
     7    3   13 1
     8    4    5 1
     9    4    8 1
    10    5    6 1
    11    5    7 2
    12    6   14 1
    13    8    9 1
    14    9   10 1
    15   10   11 1
    16   10   12 1
    17   10   34 1
    18   14   16 2
    19   14   17 1
    20   15   16 1
    21   15   19 1
    22   15   20 2
    23   15   21 2
    24   17   18 1
    25   18   19 2
    26   18   23 1
    27   19   22 1
    28   22   25 2
    29   23   24 2
    30   24   25 1
    31   25   29 1
    32   26   27 1
    33   27   28 2
    34   29   30 1
    35   29   35 1
    36   30   31 1
    37   30   32 2
    38   30   33 2
    39    8   36 1
    40    8   37 1
    41    9   38 1
    42    9   39 1
    43   11   40 1
    44   11   41 1
    45   11   42 1
    46   12   43 1
    47   12   44 1
    48   12   45 1
    49   13   46 1
    50   17   47 1
    51   22   48 1
    52   23   49 1
    53   24   50 1
    54   26   51 1
    55   27   52 1
    56   28   53 1
    57   31   54 1
    58   31   55 1
    59   31   56 1
    60   34   57 1
    61   34   58 1
    62   34   59 1
    63   35   60 1
    64   35   61 1
    65   35   62 1
@<TRIPOS>PROPERTY_DATA
  Total_Score	| 5.3119
  Crash		| -6.1420
  Polar		| 2.1416
  FragIndex	| 1
  FragRMSD	| 0.919

