@<TRIPOS>MOLECULE
BindingDB_30418
 54 58 0 0 0
SMALL
NO_CHARGES


@<TRIPOS>ATOM
1    N        33.0645   44.6396   49.8618  N     
2    C        32.3380   45.6890   50.3207  C     
3    C        32.3186   45.9893   51.6687  C     
4    N        33.7399   43.8309   50.7091  N     
5    C        33.5908   44.0251   52.0375  C     
6    C        32.9127   45.1472   52.5539  C     
7    O        33.9761   43.1410   52.7972  O     
8    C        34.6386   42.8065   50.1759  C     
9    C        36.0347   43.3163   50.0345  C     
10   O        31.7305   47.1340   52.0231  O     
11   C        32.8532   45.3989   53.9409  C     
12   S        31.8348   46.7054   56.0468  S     
13   N        32.0214   46.3478   54.4197  N     
14   N        33.5601   44.6086   54.8021  N     
15   C        33.3645   44.4876   56.1431  C     
16   C        32.5566   45.3784   56.8824  C     
17   O        30.2765   46.7390   56.3931  O     
18   O        32.5924   48.0578   56.4213  O     
19   C        32.3241   45.1674   58.2561  C     
20   C        33.9504   43.3887   56.8068  C     
21   C        33.7311   43.1768   58.1903  C     
22   C        32.9223   44.0714   58.9254  C     
23   C        31.6429   46.2864   49.2734  C     
24   C        31.9717   45.5696   48.1216  C     
25   C        32.8571   44.5704   48.5128  C     
26   N        32.7661   43.8489   60.2598  N     
27   S        32.2917   45.0531   61.3395  S     
28   C        33.0096   46.6637   60.9756  C     
29   O        30.7101   45.1656   61.4267  O     
30   O        32.8286   44.6404   62.7840  O     
31   C        36.6316   43.4661   48.7590  C     
32   C        36.7833   43.6528   51.1888  C     
33   C        38.0917   44.1550   51.0645  C     
34   C        38.6794   44.3139   49.7933  C     
35   C        37.9434   43.9590   48.6440  C     
36   F        39.8865   44.7925   49.6796  F     
37   H        34.6763   41.9135   50.8070  H     
38   H        34.2597   42.4425   49.2217  H     
39   H        30.8044   46.8523   52.2139  H     
40   H        34.1786   43.9739   54.4127  H     
41   H        31.7264   45.8164   58.7766  H     
42   H        34.5157   42.7217   56.2879  H     
43   H        34.1590   42.3661   58.6390  H     
44   H        30.9945   47.0671   49.3223  H     
45   H        31.5984   45.7190   47.1833  H     
46   H        33.2448   43.8811   47.8598  H     
47   H        33.0658   43.0136   60.6369  H     
48   H        34.0917   46.6011   61.0395  H     
49   H        32.6436   47.3955   61.6946  H     
50   H        32.7291   46.9924   59.9715  H     
51   H        36.1153   43.2145   47.9114  H     
52   H        36.3890   43.5254   52.1242  H     
53   H        38.6235   44.4021   51.9107  H     
54   H        38.3658   44.0557   47.7171  H     
@<TRIPOS>BOND
     1    1    2 1
     2    1    4 1
     3    1   25 1
     4    2    3 1
     5    2   23 2
     6    3    6 2
     7    3   10 1
     8    4    5 1
     9    4    8 1
    10    5    6 1
    11    5    7 2
    12    6   11 1
    13    8    9 1
    14    9   31 1
    15    9   32 2
    16   11   13 2
    17   11   14 1
    18   12   13 1
    19   12   16 1
    20   12   17 2
    21   12   18 2
    22   14   15 1
    23   15   16 2
    24   15   20 1
    25   16   19 1
    26   19   22 2
    27   20   21 2
    28   21   22 1
    29   22   26 1
    30   23   24 1
    31   24   25 2
    32   26   27 1
    33   27   28 1
    34   27   29 2
    35   27   30 2
    36   31   35 2
    37   32   33 1
    38   33   34 2
    39   34   35 1
    40   34   36 1
    41    8   37 1
    42    8   38 1
    43   10   39 1
    44   14   40 1
    45   19   41 1
    46   20   42 1
    47   21   43 1
    48   23   44 1
    49   24   45 1
    50   25   46 1
    51   26   47 1
    52   28   48 1
    53   28   49 1
    54   28   50 1
    55   31   51 1
    56   32   52 1
    57   33   53 1
    58   35   54 1
@<TRIPOS>PROPERTY_DATA
  Total_Score	| 7.8516
  Crash		| -2.6066
  Polar		| 3.3421
  FragIndex	| 1
  FragRMSD	| 0.898

