@<TRIPOS>MOLECULE
BindingDB_30415
 59 62 0 0 0
SMALL
NO_CHARGES


@<TRIPOS>ATOM
1    N        33.1597   44.5098   49.7626  N     
2    C        32.5179   45.6077   50.2211  C     
3    C        32.5394   45.9139   51.5738  C     
4    N        33.9093   43.7374   50.5803  N     
5    C        33.8967   44.0195   51.9056  C     
6    C        33.1442   45.0723   52.4500  C     
7    O        34.6457   43.3909   52.6499  O     
8    C        34.6693   42.6294   49.9848  C     
9    C        36.1671   42.4073   50.3622  C     
10   C        37.1518   43.6511   50.5170  C     
11   C        38.3503   43.5363   49.5217  C     
12   C        36.4793   45.0225   50.2217  C     
13   O        31.8406   46.9839   51.9487  O     
14   C        32.9974   45.2386   53.8525  C     
15   S        32.3690   46.7677   55.9878  S     
16   N        32.6382   46.4420   54.3599  N     
17   N        33.1756   44.1799   54.6945  N     
18   C        33.1176   44.1715   56.0550  C     
19   C        32.7222   45.2901   56.8176  C     
20   O        30.8501   47.1653   56.2390  O     
21   O        33.3892   47.8805   56.4965  O     
22   C        32.6296   45.2150   58.2197  C     
23   C        33.4629   42.9838   56.7265  C     
24   C        33.4214   42.9224   58.1331  C     
25   C        32.9849   44.0262   58.8954  C     
26   C        31.8268   46.2371   49.1881  C     
27   C        32.0217   45.4558   48.0638  C     
28   C        32.8481   44.4042   48.4412  C     
29   N        32.9779   43.8671   60.2464  N     
30   S        32.4640   44.9952   61.3932  S     
31   C        30.6739   45.2183   61.4095  C     
32   O        32.8824   44.3887   62.7963  O     
33   O        33.2505   46.3814   61.2976  O     
34   C        37.7342   43.6670   51.9730  C     
35   H        34.1227   41.7188   50.2365  H     
36   H        34.6794   42.6948   48.8957  H     
37   H        36.1407   41.8067   51.2762  H     
38   H        36.5668   41.7269   49.6122  H     
39   H        38.8658   42.5856   49.6525  H     
40   H        39.0794   44.3371   49.6767  H     
41   H        37.9998   43.5915   48.4901  H     
42   H        36.0669   45.0218   49.2163  H     
43   H        37.1994   45.8401   50.2903  H     
44   H        35.6792   45.2297   50.9240  H     
45   H        30.9339   46.6435   52.1453  H     
46   H        33.3937   43.3337   54.2899  H     
47   H        32.3284   46.0339   58.7477  H     
48   H        33.7641   42.1673   56.1974  H     
49   H        33.7008   42.0516   58.5891  H     
50   H        31.2394   47.0772   49.2488  H     
51   H        31.6354   45.6148   47.1285  H     
52   H        33.1362   43.6645   47.7987  H     
53   H        33.1504   42.9698   60.5857  H     
54   H        30.3646   45.7153   60.4838  H     
55   H        30.3859   45.8329   62.2697  H     
56   H        30.1895   44.2362   61.4809  H     
57   H        36.9476   43.8219   52.7119  H     
58   H        38.4672   44.4721   52.0970  H     
59   H        38.2299   42.7204   52.2079  H     
@<TRIPOS>BOND
     1    1    2 1
     2    1    4 1
     3    1   28 1
     4    2    3 1
     5    2   26 2
     6    3    6 2
     7    3   13 1
     8    4    5 1
     9    4    8 1
    10    5    6 1
    11    5    7 2
    12    6   14 1
    13    8    9 1
    14    9   10 1
    15   10   11 1
    16   10   12 1
    17   10   34 1
    18   14   16 2
    19   14   17 1
    20   15   16 1
    21   15   19 1
    22   15   20 2
    23   15   21 2
    24   17   18 1
    25   18   19 2
    26   18   23 1
    27   19   22 1
    28   22   25 2
    29   23   24 2
    30   24   25 1
    31   25   29 1
    32   26   27 1
    33   27   28 2
    34   29   30 1
    35   30   31 1
    36   30   32 2
    37   30   33 2
    38    8   35 1
    39    8   36 1
    40    9   37 1
    41    9   38 1
    42   11   39 1
    43   11   40 1
    44   11   41 1
    45   12   42 1
    46   12   43 1
    47   12   44 1
    48   13   45 1
    49   17   46 1
    50   22   47 1
    51   23   48 1
    52   24   49 1
    53   26   50 1
    54   27   51 1
    55   28   52 1
    56   29   53 1
    57   31   54 1
    58   31   55 1
    59   31   56 1
    60   34   57 1
    61   34   58 1
    62   34   59 1
@<TRIPOS>PROPERTY_DATA
  Total_Score	| 6.8907
  Crash		| -4.4699
  Polar		| 3.4221
  FragIndex	| 1
  FragRMSD	| 0.380

