@<TRIPOS>MOLECULE
BindingDB_30409
 52 55 0 0 0
SMALL
NO_CHARGES


@<TRIPOS>ATOM
1    N        33.3893   44.5016   50.0812  N     
2    C        32.6782   45.5849   50.4748  C     
3    C        32.6426   45.9532   51.8113  C     
4    N        34.1359   43.7960   50.9525  N     
5    C        34.0902   44.1429   52.2654  C     
6    C        33.2675   45.1724   52.7368  C     
7    O        34.8680   43.6142   53.0537  O     
8    C        34.9568   42.6864   50.4732  C     
9    C        36.2086   43.1082   49.6544  C     
10   C        37.2839   43.9521   50.4138  C     
11   C        37.7983   43.2457   51.7039  C     
12   C        38.4810   44.2978   49.4838  C     
13   O        31.8820   47.0035   52.1078  O     
14   C        33.0718   45.3801   54.1329  C     
15   S        32.2483   46.9557   56.1713  S     
16   N        32.5875   46.5664   54.5727  N     
17   N        33.3497   44.3938   55.0381  N     
18   C        33.2634   44.4513   56.4002  C     
19   C        32.7454   45.5736   57.0826  C     
20   O        30.6922   47.1781   56.4015  O     
21   O        33.1443   48.1815   56.6507  O     
22   C        32.6629   45.5910   58.4860  C     
23   C        33.7152   43.3519   57.1614  C     
24   C        33.6688   43.3836   58.5687  C     
25   C        33.1503   44.5062   59.2462  C     
26   C        31.9962   46.1206   49.3834  C     
27   C        32.2906   45.3119   48.3010  C     
28   C        33.1503   44.3223   48.7597  C     
29   O        33.0932   44.4694   60.6198  O     
30   C        32.9993   45.7319   61.3082  C     
31   H        35.3019   42.0424   51.2820  H     
32   H        34.3310   42.0315   49.8629  H     
33   H        36.6929   42.1937   49.2806  H     
34   H        35.8789   43.6606   48.7661  H     
35   H        36.8274   44.9045   50.7079  H     
36   H        36.9946   43.0798   52.4153  H     
37   H        38.5573   43.8638   52.1987  H     
38   H        38.2391   42.2725   51.4630  H     
39   H        39.0108   43.3866   49.1804  H     
40   H        39.1882   44.9555   49.9979  H     
41   H        38.1312   44.8187   48.5870  H     
42   H        31.0987   46.6319   52.5733  H     
43   H        33.6637   43.5552   54.6739  H     
44   H        32.2669   46.4056   58.9555  H     
45   H        34.0955   42.5224   56.6977  H     
46   H        34.0072   42.5722   59.0989  H     
47   H        31.3722   46.9307   49.3839  H     
48   H        31.9208   45.4120   47.3560  H     
49   H        33.5016   43.5655   48.1722  H     
50   H        33.7289   46.4502   60.9277  H     
51   H        33.1888   45.5671   62.3710  H     
52   H        31.9976   46.1529   61.2051  H     
@<TRIPOS>BOND
     1    1    2 1
     2    1    4 1
     3    1   28 1
     4    2    3 1
     5    2   26 2
     6    3    6 2
     7    3   13 1
     8    4    5 1
     9    4    8 1
    10    5    6 1
    11    5    7 2
    12    6   14 1
    13    8    9 1
    14    9   10 1
    15   10   11 1
    16   10   12 1
    17   14   16 2
    18   14   17 1
    19   15   16 1
    20   15   19 1
    21   15   20 2
    22   15   21 2
    23   17   18 1
    24   18   19 2
    25   18   23 1
    26   19   22 1
    27   22   25 2
    28   23   24 2
    29   24   25 1
    30   25   29 1
    31   26   27 1
    32   27   28 2
    33   29   30 1
    34    8   31 1
    35    8   32 1
    36    9   33 1
    37    9   34 1
    38   10   35 1
    39   11   36 1
    40   11   37 1
    41   11   38 1
    42   12   39 1
    43   12   40 1
    44   12   41 1
    45   13   42 1
    46   17   43 1
    47   22   44 1
    48   23   45 1
    49   24   46 1
    50   26   47 1
    51   27   48 1
    52   28   49 1
    53   30   50 1
    54   30   51 1
    55   30   52 1
@<TRIPOS>PROPERTY_DATA
  Total_Score	| 6.9181
  Crash		| -1.5726
  Polar		| 1.1537
  FragIndex	| 1
  FragRMSD	| 0.350

