@<TRIPOS>MOLECULE
BindingDB_30408
 48 51 0 0 0
SMALL
NO_CHARGES


@<TRIPOS>ATOM
1    N        33.3252   44.4726   50.0463  N     
2    C        32.6576   45.5843   50.4312  C     
3    C        32.6798   45.9791   51.7638  C     
4    N        34.1128   43.7889   50.8968  N     
5    C        34.1441   44.1809   52.1950  C     
6    C        33.3311   45.2107   52.6747  C     
7    O        35.0103   43.7327   52.9357  O     
8    C        34.9325   42.6921   50.3999  C     
9    C        36.1962   43.1618   49.6220  C     
10   C        37.2832   43.9197   50.4557  C     
11   C        37.7750   43.1086   51.6890  C     
12   C        38.4997   44.2889   49.5609  C     
13   O        31.9675   47.0548   52.0984  O     
14   C        33.1126   45.3633   54.0685  C     
15   S        32.2168   46.7806   56.1814  S     
16   N        32.5632   46.5006   54.5606  N     
17   N        33.4400   44.3503   54.9192  N     
18   C        33.3537   44.3286   56.2790  C     
19   C        32.7943   45.3868   57.0291  C     
20   O        30.6505   46.9145   56.4133  O     
21   O        33.0076   48.0474   56.7183  O     
22   C        32.7311   45.3119   58.4352  C     
23   C        33.8605   43.2014   56.9571  C     
24   C        33.8097   43.1322   58.3625  C     
25   C        33.2449   44.1849   59.1028  C     
26   C        31.9658   46.1066   49.3422  C     
27   C        32.1981   45.2575   48.2726  C     
28   C        33.0291   44.2492   48.7417  C     
29   H        35.2505   42.0088   51.1893  H     
30   H        34.3204   42.0786   49.7406  H     
31   H        36.6539   42.2752   49.1541  H     
32   H        35.8710   43.8241   48.8003  H     
33   H        36.8505   44.8587   50.8094  H     
34   H        36.9663   42.9139   52.3897  H     
35   H        38.5528   43.6736   52.2228  H     
36   H        38.1897   42.1454   51.3756  H     
37   H        39.0274   43.3891   49.2360  H     
38   H        39.1988   44.9304   50.1057  H     
39   H        38.1754   44.8258   48.6707  H     
40   H        31.0205   46.7988   52.0252  H     
41   H        33.8037   43.5507   54.5128  H     
42   H        32.3163   46.0755   58.9775  H     
43   H        34.2761   42.4245   56.4343  H     
44   H        34.1831   42.3120   58.8477  H     
45   H        33.2043   44.1300   60.1248  H     
46   H        31.3617   46.9347   49.3261  H     
47   H        31.8126   45.3309   47.3287  H     
48   H        33.3596   43.4608   48.1755  H     
@<TRIPOS>BOND
     1    1    2 1
     2    1    4 1
     3    1   28 1
     4    2    3 1
     5    2   26 2
     6    3    6 2
     7    3   13 1
     8    4    5 1
     9    4    8 1
    10    5    6 1
    11    5    7 2
    12    6   14 1
    13    8    9 1
    14    9   10 1
    15   10   11 1
    16   10   12 1
    17   14   16 2
    18   14   17 1
    19   15   16 1
    20   15   19 1
    21   15   20 2
    22   15   21 2
    23   17   18 1
    24   18   19 2
    25   18   23 1
    26   19   22 1
    27   22   25 2
    28   23   24 2
    29   24   25 1
    30   26   27 1
    31   27   28 2
    32    8   29 1
    33    8   30 1
    34    9   31 1
    35    9   32 1
    36   10   33 1
    37   11   34 1
    38   11   35 1
    39   11   36 1
    40   12   37 1
    41   12   38 1
    42   12   39 1
    43   13   40 1
    44   17   41 1
    45   22   42 1
    46   23   43 1
    47   24   44 1
    48   25   45 1
    49   26   46 1
    50   27   47 1
    51   28   48 1
@<TRIPOS>PROPERTY_DATA
  Total_Score	| 6.7131
  Crash		| -1.2265
  Polar		| 1.1772
  FragIndex	| 1
  FragRMSD	| 0.277

