@<TRIPOS>MOLECULE
BindingDB_30420
 57 61 0 0 0
SMALL
NO_CHARGES


@<TRIPOS>ATOM
1    N        33.1636   44.4345   50.0077  N     
2    C        32.4849   45.5465   50.3835  C     
3    C        32.4352   45.9224   51.7156  C     
4    N        33.8640   43.7042   50.9008  N     
5    C        33.7941   44.0532   52.2103  C     
6    C        33.0121   45.1233   52.6526  C     
7    O        34.5187   43.4883   53.0232  O     
8    C        34.7555   42.6356   50.4595  C     
9    C        36.1259   43.1649   50.2302  C     
10   O        31.7396   47.0213   52.0052  O     
11   C        32.7881   45.3377   54.0316  C     
12   S        32.2902   46.9796   56.1045  S     
13   N        32.5910   46.5935   54.4965  N     
14   N        32.7614   44.2732   54.8850  N     
15   C        32.5567   44.2877   56.2344  C     
16   C        32.2757   45.4698   56.9497  C     
17   O        30.8692   47.6720   56.2683  O     
18   O        33.4698   47.8623   56.7020  O     
19   C        31.9995   45.4224   58.3266  C     
20   C        32.6099   43.0660   56.9361  C     
21   C        32.3677   43.0262   58.3223  C     
22   C        32.0502   44.2033   59.0390  C     
23   C        31.8510   46.1091   49.2791  C     
24   C        32.1526   45.2989   48.2001  C     
25   C        32.9675   44.2792   48.6742  C     
26   N        31.7690   44.1731   60.3835  N     
27   S        32.5005   45.2736   61.4457  S     
28   C        33.8304   46.2865   60.7561  C     
29   O        31.4208   46.2642   62.0622  O     
30   O        33.1434   44.4410   62.6372  O     
31   C        36.9573   43.5178   51.3194  C     
32   C        36.5918   43.4119   48.9187  C     
33   C        37.8429   44.0137   48.7067  C     
34   C        38.6448   44.3884   49.7986  C     
35   C        38.1926   44.1497   51.1079  C     
36   F        39.7991   44.9590   49.5982  F     
37   C        30.8069   43.2373   60.9027  C     
38   H        34.7824   41.8262   51.1944  H     
39   H        34.3950   42.1492   49.5541  H     
40   H        30.9181   46.7015   52.4335  H     
41   H        32.8905   43.3969   54.4904  H     
42   H        31.7592   46.2850   58.8157  H     
43   H        32.8223   42.1964   56.4402  H     
44   H        32.4248   42.1280   58.8063  H     
45   H        31.2525   46.9373   49.2659  H     
46   H        31.8218   45.4178   47.2412  H     
47   H        33.3268   43.5296   48.0826  H     
48   H        34.5052   45.6597   60.1680  H     
49   H        34.3926   46.7552   61.5631  H     
50   H        33.4131   47.0677   60.1173  H     
51   H        36.6614   43.3386   52.2808  H     
52   H        36.0212   43.1663   48.1079  H     
53   H        38.1629   44.1887   47.7556  H     
54   H        38.7599   44.4339   51.9095  H     
55   H        29.8651   43.3291   60.3523  H     
56   H        30.5871   43.4014   61.9620  H     
57   H        31.1765   42.2137   60.7991  H     
@<TRIPOS>BOND
     1    1    2 1
     2    1    4 1
     3    1   25 1
     4    2    3 1
     5    2   23 2
     6    3    6 2
     7    3   10 1
     8    4    5 1
     9    4    8 1
    10    5    6 1
    11    5    7 2
    12    6   11 1
    13    8    9 1
    14    9   31 1
    15    9   32 2
    16   11   13 2
    17   11   14 1
    18   12   13 1
    19   12   16 1
    20   12   17 2
    21   12   18 2
    22   14   15 1
    23   15   16 2
    24   15   20 1
    25   16   19 1
    26   19   22 2
    27   20   21 2
    28   21   22 1
    29   22   26 1
    30   23   24 1
    31   24   25 2
    32   26   27 1
    33   26   37 1
    34   27   28 1
    35   27   29 2
    36   27   30 2
    37   31   35 2
    38   32   33 1
    39   33   34 2
    40   34   35 1
    41   34   36 1
    42    8   38 1
    43    8   39 1
    44   10   40 1
    45   14   41 1
    46   19   42 1
    47   20   43 1
    48   21   44 1
    49   23   45 1
    50   24   46 1
    51   25   47 1
    52   28   48 1
    53   28   49 1
    54   28   50 1
    55   31   51 1
    56   32   52 1
    57   33   53 1
    58   35   54 1
    59   37   55 1
    60   37   56 1
    61   37   57 1
@<TRIPOS>PROPERTY_DATA
  Total_Score	| 6.6809
  Crash		| -2.7359
  Polar		| 2.1467
  FragIndex	| 1
  FragRMSD	| 0.945

