@<TRIPOS>MOLECULE
BindingDB_30412
 57 60 0 0 0
SMALL
NO_CHARGES


@<TRIPOS>ATOM
1    N        33.3658   44.5295   50.0256  N     
2    C        32.6254   45.5970   50.4421  C     
3    C        32.6742   46.0009   51.7608  C     
4    N        34.1855   43.8661   50.8636  N     
5    C        34.2474   44.2740   52.1557  C     
6    C        33.4105   45.2753   52.6535  C     
7    O        35.1207   43.8321   52.8877  O     
8    C        34.9534   42.7228   50.3790  C     
9    C        36.2479   43.1326   49.6121  C     
10   C        37.3291   43.8805   50.4629  C     
11   C        37.8104   43.0543   51.6891  C     
12   C        38.5476   44.2783   49.5877  C     
13   O        31.8805   47.0197   52.1035  O     
14   C        33.1939   45.4242   54.0366  C     
15   S        32.4194   46.8686   56.1695  S     
16   N        32.7856   46.6126   54.5498  N     
17   N        33.3483   44.3376   54.8448  N     
18   C        33.1868   44.2737   56.1937  C     
19   C        32.7532   45.3719   56.9668  C     
20   O        30.8751   47.2218   56.3276  O     
21   O        33.3564   48.0099   56.7645  O     
22   C        32.5789   45.2422   58.3536  C     
23   C        33.4621   43.0546   56.8382  C     
24   C        33.3052   42.9270   58.2297  C     
25   C        32.8672   44.0220   59.0085  C     
26   C        31.8235   46.0571   49.4118  C     
27   C        32.0611   45.2183   48.3319  C     
28   C        33.0146   44.2912   48.7386  C     
29   N        32.7221   43.8024   60.3392  N     
30   S        32.3926   45.0002   61.4942  S     
31   C        30.6312   45.3946   61.6019  C     
32   O        32.8540   44.3955   62.8910  O     
33   O        33.3267   46.2778   61.3100  O     
34   C        31.4333   45.2638   47.2090  C     
35   N        30.8851   45.3185   46.1982  N     
36   H        35.2045   42.0269   51.1838  H     
37   H        34.3233   42.1356   49.6930  H     
38   H        36.6974   42.2231   49.1905  H     
39   H        35.9603   43.7794   48.7744  H     
40   H        36.8884   44.8133   50.8309  H     
41   H        37.0055   42.8956   52.3994  H     
42   H        38.5937   43.5843   52.2276  H     
43   H        38.1789   42.0777   51.3690  H     
44   H        39.0592   43.3888   49.2142  H     
45   H        39.2553   44.8635   50.1685  H     
46   H        38.2304   44.8832   48.7390  H     
47   H        31.0295   46.6103   52.3481  H     
48   H        33.6122   43.4979   54.4260  H     
49   H        32.2330   46.0421   58.8893  H     
50   H        33.7750   42.2480   56.2952  H     
51   H        33.5231   42.0246   58.6671  H     
52   H        31.1519   46.8237   49.4609  H     
53   H        33.3732   43.5415   48.1364  H     
54   H        33.0351   42.9595   60.6868  H     
55   H        30.2715   45.7086   60.6235  H     
56   H        30.4751   46.1904   62.3289  H     
57   H        30.0909   44.5028   61.9165  H     
@<TRIPOS>BOND
     1    1    2 1
     2    1    4 1
     3    1   28 1
     4    2    3 1
     5    2   26 2
     6    3    6 2
     7    3   13 1
     8    4    5 1
     9    4    8 1
    10    5    6 1
    11    5    7 2
    12    6   14 1
    13    8    9 1
    14    9   10 1
    15   10   11 1
    16   10   12 1
    17   14   16 2
    18   14   17 1
    19   15   16 1
    20   15   19 1
    21   15   20 2
    22   15   21 2
    23   17   18 1
    24   18   19 2
    25   18   23 1
    26   19   22 1
    27   22   25 2
    28   23   24 2
    29   24   25 1
    30   25   29 1
    31   26   27 1
    32   27   28 2
    33   27   34 1
    34   29   30 1
    35   30   31 1
    36   30   32 2
    37   30   33 2
    38   34   35 3
    39    8   36 1
    40    8   37 1
    41    9   38 1
    42    9   39 1
    43   10   40 1
    44   11   41 1
    45   11   42 1
    46   11   43 1
    47   12   44 1
    48   12   45 1
    49   12   46 1
    50   13   47 1
    51   17   48 1
    52   22   49 1
    53   23   50 1
    54   24   51 1
    55   26   52 1
    56   28   53 1
    57   29   54 1
    58   31   55 1
    59   31   56 1
    60   31   57 1
@<TRIPOS>PROPERTY_DATA
  Total_Score	| 7.5639
  Crash		| -2.9587
  Polar		| 3.1294
  FragIndex	| 1
  FragRMSD	| 0.218

