@<TRIPOS>MOLECULE
BindingDB_30413
 59 62 0 0 0
SMALL
NO_CHARGES


@<TRIPOS>ATOM
1    N        33.4441   44.3303   50.0725  N     
2    C        32.7882   45.4741   50.3884  C     
3    C        32.7392   45.9070   51.7069  C     
4    N        34.1648   43.6543   50.9891  N     
5    C        34.0935   44.0581   52.2819  C     
6    C        33.2792   45.1227   52.6805  C     
7    O        34.8339   43.5435   53.1127  O     
8    C        34.9900   42.5251   50.5681  C     
9    C        36.2416   42.9108   49.7267  C     
10   C        37.2070   43.9892   50.3185  C     
11   C        37.7747   43.6436   51.7313  C     
12   C        38.3751   44.2439   49.3234  C     
13   O        32.0418   47.0186   51.9465  O     
14   C        32.9488   45.3053   54.0463  C     
15   S        32.1911   46.8578   56.1171  S     
16   N        32.6444   46.5377   54.5298  N     
17   N        32.9151   44.2215   54.8789  N     
18   C        32.6304   44.1891   56.2139  C     
19   C        32.2363   45.3343   56.9372  C     
20   O        30.7110   47.4283   56.1840  O     
21   O        33.2477   47.8180   56.8129  O     
22   C        31.9034   45.2376   58.2993  C     
23   C        32.7222   42.9524   56.8883  C     
24   C        32.4198   42.8621   58.2604  C     
25   C        31.9985   44.0045   58.9804  C     
26   C        32.1450   45.9650   49.2579  C     
27   C        32.4081   45.0701   48.2315  C     
28   C        33.1983   44.0628   48.7673  C     
29   N        31.6916   43.9222   60.3132  N     
30   S        32.3659   45.0228   61.4135  S     
31   C        33.5258   46.2245   60.7217  C     
32   O        31.2249   45.8295   62.1715  O     
33   O        33.1771   44.1984   62.5031  O     
34   C        30.7572   42.9333   60.7760  C     
35   H        35.3340   41.9122   51.4019  H     
36   H        34.3592   41.8564   49.9717  H     
37   H        36.8065   41.9905   49.5476  H     
38   H        35.8998   43.2731   48.7469  H     
39   H        36.6497   44.9327   50.3999  H     
40   H        37.0273   43.8282   52.4949  H     
41   H        38.6347   44.2723   51.9712  H     
42   H        38.0796   42.5925   51.7907  H     
43   H        39.0957   43.4139   49.3637  H     
44   H        38.8932   45.1766   49.5715  H     
45   H        38.0051   44.3328   48.2925  H     
46   H        31.1324   46.7101   52.1330  H     
47   H        33.1316   43.3624   54.4778  H     
48   H        31.5933   46.0704   58.8020  H     
49   H        33.0040   42.1098   56.3817  H     
50   H        32.5080   41.9595   58.7341  H     
51   H        31.5529   46.7969   49.2004  H     
52   H        32.0625   45.1247   47.2710  H     
53   H        33.5320   43.2412   48.2465  H     
54   H        34.2379   45.7199   60.0659  H     
55   H        34.0742   46.7182   61.5219  H     
56   H        32.9844   46.9786   60.1512  H     
57   H        29.7983   43.0504   60.2627  H     
58   H        30.5696   43.0012   61.8506  H     
59   H        31.1418   41.9316   60.5811  H     
@<TRIPOS>BOND
     1    1    2 1
     2    1    4 1
     3    1   28 1
     4    2    3 1
     5    2   26 2
     6    3    6 2
     7    3   13 1
     8    4    5 1
     9    4    8 1
    10    5    6 1
    11    5    7 2
    12    6   14 1
    13    8    9 1
    14    9   10 1
    15   10   11 1
    16   10   12 1
    17   14   16 2
    18   14   17 1
    19   15   16 1
    20   15   19 1
    21   15   20 2
    22   15   21 2
    23   17   18 1
    24   18   19 2
    25   18   23 1
    26   19   22 1
    27   22   25 2
    28   23   24 2
    29   24   25 1
    30   25   29 1
    31   26   27 1
    32   27   28 2
    33   29   30 1
    34   29   34 1
    35   30   31 1
    36   30   32 2
    37   30   33 2
    38    8   35 1
    39    8   36 1
    40    9   37 1
    41    9   38 1
    42   10   39 1
    43   11   40 1
    44   11   41 1
    45   11   42 1
    46   12   43 1
    47   12   44 1
    48   12   45 1
    49   13   46 1
    50   17   47 1
    51   22   48 1
    52   23   49 1
    53   24   50 1
    54   26   51 1
    55   27   52 1
    56   28   53 1
    57   31   54 1
    58   31   55 1
    59   31   56 1
    60   34   57 1
    61   34   58 1
    62   34   59 1
@<TRIPOS>PROPERTY_DATA
  Total_Score	| 7.9544
  Crash		| -2.0966
  Polar		| 2.2157
  FragIndex	| 1
  FragRMSD	| 0.863

