@<TRIPOS>MOLECULE
BindingDB_30411
 56 59 0 0 0
SMALL
NO_CHARGES


@<TRIPOS>ATOM
1    N        33.0828   44.7067   49.7612  N     
2    C        32.3702   45.7599   50.2227  C     
3    C        32.4339   46.1088   51.5618  C     
4    N        33.9381   44.0221   50.5509  N     
5    C        34.0484   44.4154   51.8482  C     
6    C        33.1958   45.3642   52.4077  C     
7    O        34.9917   44.0399   52.5383  O     
8    C        34.6549   42.9013   49.9459  C     
9    C        36.0799   42.5223   50.4374  C     
10   C        37.0330   43.7605   50.6239  C     
11   C        37.7848   43.6967   51.9794  C     
12   C        38.0399   43.9329   49.4537  C     
13   O        31.6790   47.1239   51.9583  O     
14   C        33.0361   45.4613   53.8095  C     
15   S        32.4377   46.8950   56.0063  S     
16   N        32.6692   46.6431   54.3625  N     
17   N        33.2433   44.3660   54.5969  N     
18   C        33.1273   44.2747   55.9571  C     
19   C        32.7480   45.3713   56.7663  C     
20   O        30.9330   47.3273   56.2958  O     
21   O        33.5113   47.9350   56.5532  O     
22   C        32.6494   45.2331   58.1622  C     
23   C        33.4070   43.0430   56.5803  C     
24   C        33.3016   42.9041   57.9765  C     
25   C        32.9197   43.9963   58.7891  C     
26   C        31.5896   46.2877   49.1955  C     
27   C        31.8378   45.5131   48.0781  C     
28   C        32.7630   44.5492   48.4516  C     
29   N        32.8390   43.7765   60.1335  N     
30   S        32.3754   44.8932   61.3120  S     
31   C        30.6047   45.1948   61.4265  C     
32   O        32.8458   44.2873   62.7048  O     
33   O        33.2098   46.2391   61.1737  O     
34   F        31.3022   45.6696   46.8959  F     
35   H        34.0333   42.0135   50.1170  H     
36   H        34.6990   43.0566   48.8609  H     
37   H        35.9403   41.9583   51.3698  H     
38   H        36.5360   41.8350   49.7277  H     
39   H        36.4403   44.6794   50.6360  H     
40   H        37.0814   43.6168   52.8100  H     
41   H        38.3759   44.6050   52.1270  H     
42   H        38.4530   42.8332   52.0053  H     
43   H        38.7607   43.1097   49.4524  H     
44   H        38.5953   44.8716   49.5600  H     
45   H        37.5245   43.9595   48.4870  H     
46   H        30.7902   46.7353   52.1403  H     
47   H        33.4867   43.5467   54.1382  H     
48   H        32.3710   46.0451   58.7150  H     
49   H        33.6817   42.2339   56.0173  H     
50   H        33.5131   41.9967   58.3999  H     
51   H        30.9431   47.0767   49.2552  H     
52   H        33.1312   43.8413   47.8181  H     
53   H        33.0323   42.8802   60.4476  H     
54   H        30.2397   45.5940   60.4829  H     
55   H        30.4019   45.9121   62.2209  H     
56   H        30.0898   44.2616   61.6468  H     
@<TRIPOS>BOND
     1    1    2 1
     2    1    4 1
     3    1   28 1
     4    2    3 1
     5    2   26 2
     6    3    6 2
     7    3   13 1
     8    4    5 1
     9    4    8 1
    10    5    6 1
    11    5    7 2
    12    6   14 1
    13    8    9 1
    14    9   10 1
    15   10   11 1
    16   10   12 1
    17   14   16 2
    18   14   17 1
    19   15   16 1
    20   15   19 1
    21   15   20 2
    22   15   21 2
    23   17   18 1
    24   18   19 2
    25   18   23 1
    26   19   22 1
    27   22   25 2
    28   23   24 2
    29   24   25 1
    30   25   29 1
    31   26   27 1
    32   27   28 2
    33   27   34 1
    34   29   30 1
    35   30   31 1
    36   30   32 2
    37   30   33 2
    38    8   35 1
    39    8   36 1
    40    9   37 1
    41    9   38 1
    42   10   39 1
    43   11   40 1
    44   11   41 1
    45   11   42 1
    46   12   43 1
    47   12   44 1
    48   12   45 1
    49   13   46 1
    50   17   47 1
    51   22   48 1
    52   23   49 1
    53   24   50 1
    54   26   51 1
    55   28   52 1
    56   29   53 1
    57   31   54 1
    58   31   55 1
    59   31   56 1
@<TRIPOS>PROPERTY_DATA
  Total_Score	| 8.6861
  Crash		| -2.2341
  Polar		| 3.5563
  FragIndex	| 1
  FragRMSD	| 0.373

