@<TRIPOS>MOLECULE
BindingDB_30467
 57 60 0 0 0
SMALL
NO_CHARGES


@<TRIPOS>ATOM
1    C        32.7655   45.5715   50.2799  C     
2    C        32.8436   46.0503   51.5733  C     
3    N        34.1229   43.7299   50.8438  N     
4    C        34.0559   44.1020   52.1437  C     
5    C        33.3558   45.2499   52.5483  C     
6    O        34.6495   43.4384   52.9800  O     
7    O        32.2538   47.2088   51.8671  O     
8    C        33.0717   45.5038   53.8919  C     
9    S        31.5889   46.5407   55.8691  S     
10   C        31.9699   46.2126   54.2422  C     
11   N        33.8462   44.9090   54.8300  N     
12   C        33.5555   44.7131   56.1418  C     
13   C        32.4982   45.3890   56.7882  C     
14   O        32.0465   48.0184   56.2335  O     
15   O        30.0287   46.3516   56.0917  O     
16   C        32.1866   45.1122   58.1344  C     
17   C        34.2815   43.7341   56.8512  C     
18   C        33.9282   43.4094   58.1739  C     
19   C        32.9015   44.1143   58.8384  C     
20   N        32.6146   43.7833   60.1204  N     
21   S        32.2947   44.9398   61.3100  S     
22   C        30.5706   45.3116   61.6616  C     
23   O        32.9066   44.3161   62.6398  O     
24   O        33.1823   46.2465   61.0829  O     
25   C        31.9943   46.0180   49.2107  C     
26   C        32.1149   45.0604   48.2204  C     
27   C        32.9772   44.0850   48.7043  C     
28   N        33.3711   44.4056   49.9559  N     
29   C        34.9982   42.6571   50.3819  C     
30   C        36.2388   43.1572   49.5819  C     
31   C        37.2940   43.9585   50.4056  C     
32   C        37.7339   43.2283   51.7013  C     
33   C        38.5451   44.2831   49.5459  C     
34   H        31.3378   47.1409   51.5134  H     
35   H        31.3746   46.6170   53.5443  H     
36   H        34.6256   44.4319   54.5058  H     
37   H        31.4183   45.6131   58.5898  H     
38   H        35.0411   43.2199   56.3943  H     
39   H        34.4412   42.6668   58.6538  H     
40   H        32.8767   42.9011   60.4311  H     
41   H        30.1259   45.8197   60.8083  H     
42   H        30.5063   45.9595   62.5358  H     
43   H        30.0299   44.3849   61.8603  H     
44   H        31.3903   46.8413   49.1903  H     
45   H        31.6327   45.0461   47.3200  H     
46   H        33.2105   43.2378   48.1955  H     
47   H        35.3673   42.0278   51.1915  H     
48   H        34.4220   41.9770   49.7575  H     
49   H        36.7261   42.2949   49.1208  H     
50   H        35.8911   43.7919   48.7650  H     
51   H        36.8498   44.9136   50.6935  H     
52   H        36.8883   43.0800   52.3634  H     
53   H        38.4801   43.8141   52.2390  H     
54   H        38.1649   42.2554   51.4722  H     
55   H        39.0576   43.3663   49.2417  H     
56   H        39.2444   44.8959   50.1193  H     
57   H        38.2596   44.8401   48.6501  H     
@<TRIPOS>BOND
     1    1    2 1
     2    1   25 2
     3    1   28 1
     4    2    5 2
     5    2    7 1
     6    3    4 1
     7    3   28 1
     8    3   29 1
     9    4    5 1
    10    4    6 2
    11    5    8 1
    12    8   10 2
    13    8   11 1
    14    9   10 1
    15    9   13 1
    16    9   14 2
    17    9   15 2
    18   11   12 1
    19   12   13 2
    20   12   17 1
    21   13   16 1
    22   16   19 2
    23   17   18 2
    24   18   19 1
    25   19   20 1
    26   20   21 1
    27   21   22 1
    28   21   23 2
    29   21   24 2
    30   25   26 1
    31   26   27 2
    32   27   28 1
    33   29   30 1
    34   30   31 1
    35   31   32 1
    36   31   33 1
    37    7   34 1
    38   10   35 1
    39   11   36 1
    40   16   37 1
    41   17   38 1
    42   18   39 1
    43   20   40 1
    44   22   41 1
    45   22   42 1
    46   22   43 1
    47   25   44 1
    48   26   45 1
    49   27   46 1
    50   29   47 1
    51   29   48 1
    52   30   49 1
    53   30   50 1
    54   31   51 1
    55   32   52 1
    56   32   53 1
    57   32   54 1
    58   33   55 1
    59   33   56 1
    60   33   57 1
@<TRIPOS>PROPERTY_DATA
  Total_Score	| 8.4280
  Crash		| -2.1389
  Polar		| 3.4631
  FragIndex	| 1
  FragRMSD	| 0.436

