@<TRIPOS>MOLECULE
BindingDB_30419
 54 58 0 0 0
SMALL
NO_CHARGES


@<TRIPOS>ATOM
1    N        33.0169   44.5765   49.8454  N     
2    C        32.3595   45.6548   50.3331  C     
3    C        32.4164   45.9595   51.6859  C     
4    N        33.7293   43.7665   50.6531  N     
5    C        33.6987   44.0044   51.9907  C     
6    C        33.0747   45.1324   52.5465  C     
7    O        34.1742   43.1483   52.7275  O     
8    C        34.5634   42.7061   50.0881  C     
9    C        35.9797   43.1590   50.0224  C     
10   O        31.8518   47.1060   52.0664  O     
11   C        33.0723   45.3751   53.9551  C     
12   S        32.2960   46.8583   56.0847  S     
13   N        32.4062   46.4462   54.4575  N     
14   N        33.6818   44.5209   54.8310  N     
15   C        33.5159   44.4547   56.1863  C     
16   C        32.8595   45.4587   56.9280  C     
17   O        30.7774   47.1026   56.4947  O     
18   O        33.2509   48.0712   56.4663  O     
19   C        32.6429   45.3075   58.3104  C     
20   C        33.9467   43.2913   56.8555  C     
21   C        33.6954   43.1207   58.2297  C     
22   C        33.0432   44.1248   58.9765  C     
23   C        31.6663   46.2889   49.3047  C     
24   C        31.9049   45.5545   48.1583  C     
25   C        32.7589   44.5200   48.5131  C     
26   N        32.8060   43.8751   60.2956  N     
27   S        32.3486   45.0093   61.4578  S     
28   C        30.5790   45.3178   61.6153  C     
29   O        32.8548   44.4258   62.8466  O     
30   O        33.1819   46.3523   61.2788  O     
31   C        36.6911   43.4438   51.2107  C     
32   C        36.6015   43.4279   48.7822  C     
33   C        37.8933   43.9853   48.7353  C     
34   C        38.5664   44.3236   49.9249  C     
35   C        37.9574   44.0598   51.1691  C     
36   F        39.7389   44.8940   49.8527  F     
37   Cl       38.6797   44.5222   52.6268  Cl    
38   H        34.5037   41.7804   50.6682  H     
39   H        34.2142   42.4142   49.1006  H     
40   H        30.8902   46.9285   52.1522  H     
41   H        34.2104   43.8062   54.4483  H     
42   H        32.1600   46.0506   58.8168  H     
43   H        34.4155   42.5436   56.3382  H     
44   H        33.9921   42.2520   58.6817  H     
45   H        31.0770   47.1199   49.3736  H     
46   H        31.5219   45.7364   47.2284  H     
47   H        33.0945   43.8256   47.8447  H     
48   H        32.9566   42.9691   60.6113  H     
49   H        30.1997   45.7746   60.7027  H     
50   H        30.3988   45.9901   62.4548  H     
51   H        30.0603   44.3751   61.7907  H     
52   H        36.2743   43.2183   52.1175  H     
53   H        36.1116   43.2355   47.9049  H     
54   H        38.3290   44.1696   47.8307  H     
@<TRIPOS>BOND
     1    1    2 1
     2    1    4 1
     3    1   25 1
     4    2    3 1
     5    2   23 2
     6    3    6 2
     7    3   10 1
     8    4    5 1
     9    4    8 1
    10    5    6 1
    11    5    7 2
    12    6   11 1
    13    8    9 1
    14    9   31 1
    15    9   32 2
    16   11   13 2
    17   11   14 1
    18   12   13 1
    19   12   16 1
    20   12   17 2
    21   12   18 2
    22   14   15 1
    23   15   16 2
    24   15   20 1
    25   16   19 1
    26   19   22 2
    27   20   21 2
    28   21   22 1
    29   22   26 1
    30   23   24 1
    31   24   25 2
    32   26   27 1
    33   27   28 1
    34   27   29 2
    35   27   30 2
    36   31   35 2
    37   32   33 1
    38   33   34 2
    39   34   35 1
    40   34   36 1
    41   35   37 1
    42    8   38 1
    43    8   39 1
    44   10   40 1
    45   14   41 1
    46   19   42 1
    47   20   43 1
    48   21   44 1
    49   23   45 1
    50   24   46 1
    51   25   47 1
    52   26   48 1
    53   28   49 1
    54   28   50 1
    55   28   51 1
    56   31   52 1
    57   32   53 1
    58   33   54 1
@<TRIPOS>PROPERTY_DATA
  Total_Score	| 7.6887
  Crash		| -2.2599
  Polar		| 3.3724
  FragIndex	| 1
  FragRMSD	| 0.525

