@<TRIPOS>MOLECULE
BindingDB_50315246
 68 72 0 0 0
SMALL
NO_CHARGES


@<TRIPOS>ATOM
1    C        11.4789   12.2749    1.7003  C     
2    C        10.7244   11.2577    1.0915  C     
3    C        11.1727    9.9269    1.1293  C     
4    C        12.7027   11.9871    2.3560  C     
5    C        13.1519   10.6382    2.3784  C     
6    C        12.3803    9.6168    1.7748  C     
7    N        12.8440    8.3420    1.8500  N     
8    C        13.9703    8.0175    2.4626  C     
9    C        14.7599    8.9884    3.0529  C     
10   N        14.3152   10.2359    2.9706  N     
11   C        15.9769    8.7255    3.7174  C     
12   C        16.2561    7.4850    4.3340  C     
13   C        17.4800    7.2248    4.9958  C     
14   C        18.4915    8.2050    4.9927  C     
15   C        18.2312    9.4677    4.4170  C     
16   C        16.9930    9.7188    3.7942  C     
17   C        13.4286   13.0276    3.0072  C     
18   C        13.7743   14.2186    2.3315  C     
19   C        14.4977   15.2310    2.9776  C     
20   C        14.9384   15.0926    4.3153  C     
21   C        14.6330   13.8730    4.9957  C     
22   C        13.8419   12.8951    4.3488  C     
23   O        19.2181   10.4168    4.3798  O     
24   C        19.2594   11.2595    5.5412  C     
25   O        19.6849    7.9467    5.6186  O     
26   C        20.8329    7.8839    4.7475  C     
27   O        17.7283    6.0045    5.5708  O     
28   C        16.8987    5.6771    6.7056  C     
29   C        15.7690   16.2030    4.8962  C     
30   N        15.0698   17.2742    5.6784  N     
31   C        14.5410   16.8111    6.9938  C     
32   C        14.0210   18.0103    7.8102  C     
33   O        13.0270   18.7418    7.0657  O     
34   C        13.5113   19.2397    5.8034  C     
35   C        14.0551   18.0827    4.9260  C     
36   C        15.1331   13.5510    6.3571  C     
37   H        11.1117   13.2311    1.6808  H     
38   H         9.8359   11.4821    0.6395  H     
39   H        10.6121    9.1879    0.7034  H     
40   H        14.2488    7.0666    2.4397  H     
41   H        15.5559    6.7373    4.3325  H     
42   H        16.8571   10.6321    3.3479  H     
43   H        13.5127   14.3502    1.3507  H     
44   H        14.7291   16.0752    2.4451  H     
45   H        13.5610   12.0590    4.8691  H     
46   H        18.3595   11.8770    5.6009  H     
47   H        20.1245   11.9195    5.4551  H     
48   H        19.3671   10.6795    6.4629  H     
49   H        20.7053    7.1276    3.9714  H     
50   H        21.6958    7.6106    5.3505  H     
51   H        21.0397    8.8494    4.2855  H     
52   H        17.0158    6.4037    7.5115  H     
53   H        17.2004    4.7001    7.0748  H     
54   H        15.8461    5.6164    6.4245  H     
55   H        16.5728   15.7966    5.5084  H     
56   H        16.3006   16.7019    4.0721  H     
57   H        15.8081   17.9397    5.9219  H     
58   H        13.7252   16.0938    6.8533  H     
59   H        15.3434   16.3361    7.5707  H     
60   H        13.5670   17.6486    8.7332  H     
61   H        14.8582   18.6649    8.0699  H     
62   H        12.6781   19.7230    5.2903  H     
63   H        14.2856   19.9944    5.9689  H     
64   H        14.5092   18.5117    4.0267  H     
65   H        13.2092   17.4572    4.6225  H     
66   H        16.2209   13.6585    6.3931  H     
67   H        14.9225   12.5148    6.6504  H     
68   H        14.6665   14.1910    7.0876  H     
@<TRIPOS>BOND
     1    1    2 2
     2    1    4 1
     3    2    3 1
     4    3    6 2
     5    4    5 2
     6    4   17 1
     7    5    6 1
     8    5   10 1
     9    6    7 1
    10    7    8 2
    11    8    9 1
    12    9   10 2
    13    9   11 1
    14   11   12 2
    15   11   16 1
    16   12   13 1
    17   13   14 2
    18   13   27 1
    19   14   15 1
    20   14   25 1
    21   15   16 2
    22   15   23 1
    23   17   18 2
    24   17   22 1
    25   18   19 1
    26   19   20 2
    27   20   21 1
    28   20   29 1
    29   21   22 2
    30   21   36 1
    31   23   24 1
    32   25   26 1
    33   27   28 1
    34   29   30 1
    35   30   31 1
    36   30   35 1
    37   31   32 1
    38   32   33 1
    39   33   34 1
    40   34   35 1
    41    1   37 1
    42    2   38 1
    43    3   39 1
    44    8   40 1
    45   12   41 1
    46   16   42 1
    47   18   43 1
    48   19   44 1
    49   22   45 1
    50   24   46 1
    51   24   47 1
    52   24   48 1
    53   26   49 1
    54   26   50 1
    55   26   51 1
    56   28   52 1
    57   28   53 1
    58   28   54 1
    59   29   55 1
    60   29   56 1
    61   30   57 1
    62   31   58 1
    63   31   59 1
    64   32   60 1
    65   32   61 1
    66   34   62 1
    67   34   63 1
    68   35   64 1
    69   35   65 1
    70   36   66 1
    71   36   67 1
    72   36   68 1
@<TRIPOS>PROPERTY_DATA
  Total_Score	| 12.5373
  Crash		| -1.9584
  Polar		| 2.2776
  FragIndex	| 1
  FragRMSD	| 0.345

