@<TRIPOS>MOLECULE
BindingDB_50315233
 78 83 0 0 0
SMALL
NO_CHARGES


@<TRIPOS>ATOM
1    C        19.3914    4.8079    6.8730  C     
2    C        19.1735    3.6409    6.1229  C     
3    C        18.2397    3.6405    5.0732  C     
4    C        18.6895    6.0049    6.5907  C     
5    C        17.7491    5.9971    5.5319  C     
6    C        17.5259    4.8163    4.7799  C     
7    N        16.6108    4.8653    3.7825  N     
8    C        15.9376    5.9612    3.4791  C     
9    C        16.1498    7.1489    4.1597  C     
10   N        17.0444    7.0897    5.1439  N     
11   C        15.5238    8.3855    3.8679  C     
12   C        14.4609    8.5184    2.9386  C     
13   C        13.8682    9.7540    2.6117  C     
14   C        14.3199   10.9404    3.2645  C     
15   C        15.3363   10.8104    4.2412  C     
16   C        15.9394    9.5813    4.5096  C     
17   C        19.0222    7.1997    7.2799  C     
18   C        18.1427    7.7982    8.2141  C     
19   C        18.4703    9.0260    8.8186  C     
20   C        19.6762    9.6949    8.5114  C     
21   C        20.5648    9.0770    7.6030  C     
22   C        20.2424    7.8541    6.9934  C     
23   C        19.9973   11.0308    9.0954  C     
24   N        19.6654   12.2143    8.2220  N     
25   C        19.8524   13.5010    8.9881  C     
26   C        19.3873   14.7764    8.2400  C     
27   S        20.2544   14.9225    6.6715  S     
28   C        20.0019   13.3088    5.9174  C     
29   C        20.4061   12.1933    6.9096  C     
30   O        19.6276   16.0678    5.7645  O     
31   O        21.8081   15.1587    6.9243  O     
32   C        13.7318   12.1927    3.0602  C     
33   N        14.3733   13.3671    2.8627  N     
34   O        12.5068   12.1645    3.1083  O     
35   C        15.8168   13.5119    2.7313  C     
36   C        16.3463   14.4985    3.8085  C     
37   N        15.6289   15.8163    3.8018  N     
38   C        14.1447   15.6430    3.7938  C     
39   C        13.6486   14.6260    2.7295  C     
40   C        16.1242   16.7725    2.7697  C     
41   C        12.7939    9.7129    1.5806  C     
42   H        20.0818    4.7842    7.6294  H     
43   H        19.7044    2.7900    6.3335  H     
44   H        18.0877    2.7906    4.5263  H     
45   H        15.2716    5.8756    2.7547  H     
46   H        14.0947    7.7005    2.4594  H     
47   H        15.6503   11.6289    4.7725  H     
48   H        16.6934    9.5673    5.2057  H     
49   H        17.2537    7.3475    8.4449  H     
50   H        17.8215    9.4342    9.4908  H     
51   H        21.4450    9.5379    7.3454  H     
52   H        20.8916    7.4606    6.3056  H     
53   H        19.4481   11.1040   10.0407  H     
54   H        21.0570   11.0654    9.3607  H     
55   H        18.6720   12.1543    8.0011  H     
56   H        19.2698   13.4579    9.9119  H     
57   H        20.9026   13.6251    9.2685  H     
58   H        18.3170   14.7176    8.0423  H     
59   H        19.5846   15.6632    8.8426  H     
60   H        18.9458   13.2051    5.6600  H     
61   H        20.6006   13.2430    5.0057  H     
62   H        21.4822   12.2482    7.0858  H     
63   H        20.2032   11.2559    6.3878  H     
64   H        16.3723   12.5791    2.8130  H     
65   H        16.0477   13.9034    1.7394  H     
66   H        16.2010   14.0395    4.7891  H     
67   H        17.4213   14.6385    3.6803  H     
68   H        15.8507   16.2588    4.6973  H     
69   H        13.8494   15.2824    4.7825  H     
70   H        13.6363   16.5983    3.6410  H     
71   H        13.8185   15.0312    1.7280  H     
72   H        12.5653   14.5307    2.8417  H     
73   H        15.9052   16.4246    1.7561  H     
74   H        17.2036   16.9070    2.8711  H     
75   H        15.6610   17.7528    2.9087  H     
76   H        13.1277    9.1287    0.7199  H     
77   H        12.5152   10.6979    1.2112  H     
78   H        11.9087    9.2387    2.0120  H     
@<TRIPOS>BOND
     1    1    2 2
     2    1    4 1
     3    2    3 1
     4    3    6 2
     5    4    5 2
     6    4   17 1
     7    5    6 1
     8    5   10 1
     9    6    7 1
    10    7    8 2
    11    8    9 1
    12    9   10 2
    13    9   11 1
    14   11   12 2
    15   11   16 1
    16   12   13 1
    17   13   14 2
    18   13   41 1
    19   14   15 1
    20   14   32 1
    21   15   16 2
    22   17   18 2
    23   17   22 1
    24   18   19 1
    25   19   20 2
    26   20   21 1
    27   20   23 1
    28   21   22 2
    29   23   24 1
    30   24   25 1
    31   24   29 1
    32   25   26 1
    33   26   27 1
    34   27   28 1
    35   27   30 2
    36   27   31 2
    37   28   29 1
    38   32   33 1
    39   32   34 2
    40   33   35 1
    41   33   39 1
    42   35   36 1
    43   36   37 1
    44   37   38 1
    45   37   40 1
    46   38   39 1
    47    1   42 1
    48    2   43 1
    49    3   44 1
    50    8   45 1
    51   12   46 1
    52   15   47 1
    53   16   48 1
    54   18   49 1
    55   19   50 1
    56   21   51 1
    57   22   52 1
    58   23   53 1
    59   23   54 1
    60   24   55 1
    61   25   56 1
    62   25   57 1
    63   26   58 1
    64   26   59 1
    65   28   60 1
    66   28   61 1
    67   29   62 1
    68   29   63 1
    69   35   64 1
    70   35   65 1
    71   36   66 1
    72   36   67 1
    73   37   68 1
    74   38   69 1
    75   38   70 1
    76   39   71 1
    77   39   72 1
    78   40   73 1
    79   40   74 1
    80   40   75 1
    81   41   76 1
    82   41   77 1
    83   41   78 1
@<TRIPOS>PROPERTY_DATA
  Total_Score	| 5.8006
  Crash		| -2.0076
  Polar		| 1.5455
  FragIndex	| 1
  FragRMSD	| 0.887

