@<TRIPOS>MOLECULE
BindingDB_50315232
 65 69 0 0 0
SMALL
NO_CHARGES


@<TRIPOS>ATOM
1    C        19.1083    5.3651    7.1829  C     
2    C        18.8696    4.0459    6.7353  C     
3    C        18.0005    3.8115    5.6483  C     
4    C        18.4808    6.4600    6.5491  C     
5    C        17.5791    6.2132    5.4926  C     
6    C        17.3503    4.8947    5.0300  C     
7    N        16.4742    4.7350    4.0052  N     
8    C        15.8194    5.7459    3.4505  C     
9    C        15.9777    7.0363    3.9280  C     
10   N        16.8593    7.2026    4.9012  N     
11   C        15.2694    8.1658    3.4747  C     
12   C        15.6857    9.4787    3.8220  C     
13   C        15.0188   10.6319    3.3651  C     
14   C        13.9371   10.4906    2.4639  C     
15   C        13.4430    9.1989    2.1718  C     
16   C        14.1025    8.0717    2.6857  C     
17   C        18.8070    7.7844    6.9251  C     
18   C        18.5585    8.2780    8.2268  C     
19   C        18.8978    9.6060    8.5623  C     
20   C        19.4958   10.4744    7.6128  C     
21   C        19.7390    9.9711    6.3150  C     
22   C        19.3828    8.6540    5.9710  C     
23   O        12.3828    8.9791    1.3286  O     
24   C        11.4503   10.0821    1.2561  C     
25   O        13.3757   11.5350    1.7604  O     
26   C        13.3440   12.8397    2.3672  C     
27   O        15.4645   11.8744    3.7276  O     
28   C        15.3609   12.1621    5.1406  C     
29   C        19.9418   11.8364    8.0381  C     
30   N        20.8649   12.5753    7.1149  N     
31   C        20.1681   13.2005    5.9473  C     
32   C        21.2000   13.8838    5.0131  C     
33   O        22.0211   14.8216    5.7404  O     
34   C        22.7242   14.2266    6.8501  C     
35   C        21.7379   13.5546    7.8377  C     
36   F        18.0021    7.5229    9.1380  F     
37   H        19.7744    5.5228    7.9550  H     
38   H        19.3407    3.2528    7.1903  H     
39   H        17.8294    2.8553    5.3223  H     
40   H        15.2296    5.5462    2.6864  H     
41   H        16.5102    9.6182    4.4250  H     
42   H        13.7162    7.1665    2.4501  H     
43   H        18.7233    9.9367    9.5192  H     
44   H        20.1920   10.5618    5.6091  H     
45   H        19.5663    8.3232    5.0195  H     
46   H        11.1607   10.4366    2.2497  H     
47   H        10.5659    9.7380    0.7339  H     
48   H        11.8451   10.9153    0.6832  H     
49   H        12.9741   12.7749    3.4030  H     
50   H        12.6762   13.4782    1.7834  H     
51   H        14.3562   13.2748    2.3492  H     
52   H        14.3398   11.9955    5.5022  H     
53   H        15.6143   13.2162    5.2855  H     
54   H        16.0684   11.5511    5.7141  H     
55   H        19.0675   12.4660    8.2294  H     
56   H        20.4322   11.6933    9.0056  H     
57   H        21.5060   11.8784    6.7305  H     
58   H        19.6390   12.4426    5.3658  H     
59   H        19.4425   13.9479    6.2849  H     
60   H        21.8323   13.1255    4.5354  H     
61   H        20.6780   14.4290    4.2230  H     
62   H        23.4506   13.4891    6.4882  H     
63   H        23.2739   15.0116    7.3724  H     
64   H        21.1337   14.3273    8.3278  H     
65   H        22.3261   13.0415    8.6042  H     
@<TRIPOS>BOND
     1    1    2 2
     2    1    4 1
     3    2    3 1
     4    3    6 2
     5    4    5 2
     6    4   17 1
     7    5    6 1
     8    5   10 1
     9    6    7 1
    10    7    8 2
    11    8    9 1
    12    9   10 2
    13    9   11 1
    14   11   12 2
    15   11   16 1
    16   12   13 1
    17   13   14 2
    18   13   27 1
    19   14   15 1
    20   14   25 1
    21   15   16 2
    22   15   23 1
    23   17   18 2
    24   17   22 1
    25   18   19 1
    26   18   36 1
    27   19   20 2
    28   20   21 1
    29   20   29 1
    30   21   22 2
    31   23   24 1
    32   25   26 1
    33   27   28 1
    34   29   30 1
    35   30   31 1
    36   30   35 1
    37   31   32 1
    38   32   33 1
    39   33   34 1
    40   34   35 1
    41    1   37 1
    42    2   38 1
    43    3   39 1
    44    8   40 1
    45   12   41 1
    46   16   42 1
    47   19   43 1
    48   21   44 1
    49   22   45 1
    50   24   46 1
    51   24   47 1
    52   24   48 1
    53   26   49 1
    54   26   50 1
    55   26   51 1
    56   28   52 1
    57   28   53 1
    58   28   54 1
    59   29   55 1
    60   29   56 1
    61   30   57 1
    62   31   58 1
    63   31   59 1
    64   32   60 1
    65   32   61 1
    66   34   62 1
    67   34   63 1
    68   35   64 1
    69   35   65 1
@<TRIPOS>PROPERTY_DATA
  Total_Score	| 6.4006
  Crash		| -2.8688
  Polar		| 3.2358
  FragIndex	| 1
  FragRMSD	| 1.038

