@<TRIPOS>MOLECULE
BindingDB_50315234
 74 79 0 0 0
SMALL
NO_CHARGES


@<TRIPOS>ATOM
1    C        11.3971   12.5760    1.5193  C     
2    C        10.6108   11.6179    0.8528  C     
3    C        10.9749   10.2605    0.8822  C     
4    C        12.5700   12.2045    2.2243  C     
5    C        12.9353   10.8293    2.2275  C     
6    C        12.1339    9.8638    1.5695  C     
7    N        12.5170    8.5624    1.6276  N     
8    C        13.6030    8.1618    2.2685  C     
9    C        14.4286    9.0748    2.8955  C     
10   N        14.0500   10.3502    2.8407  N     
11   C        15.6134    8.7496    3.5804  C     
12   C        15.8372    7.4692    4.1521  C     
13   C        17.0260    7.1397    4.8473  C     
14   C        18.0377    8.1302    4.9793  C     
15   C        17.8305    9.4111    4.4248  C     
16   C        16.6438    9.7115    3.7386  C     
17   C        13.3274   13.1895    2.9265  C     
18   C        13.7049   14.4024    2.3083  C     
19   C        14.4550   15.3620    3.0058  C     
20   C        14.8968   15.1418    4.3328  C     
21   C        14.5615   13.8983    4.9556  C     
22   C        13.7478   12.9724    4.2576  C     
23   C        15.7314   16.2173    4.9723  C     
24   N        15.0174   17.2856    5.7487  N     
25   C        14.0004   18.0775    4.9833  C     
26   C        13.4652   19.2505    5.8437  C     
27   O        12.9699   18.7736    7.1102  O     
28   C        13.9549   18.0414    7.8682  C     
29   C        14.4789   16.8275    7.0643  C     
30   C        19.2325    7.8950    5.6467  C     
31   N        19.4670    8.2000    6.9378  N     
32   O        20.0770    7.3378    4.9569  O     
33   C        20.7309    7.8817    7.5872  C     
34   C        20.4667    7.0001    8.8344  C     
35   O        19.5015    7.6224    9.7062  O     
36   C        18.2519    7.9311    9.0565  C     
37   C        18.4826    8.8249    7.8114  C     
38   C        15.0623   13.4951    6.2961  C     
39   C        17.1188    5.7708    5.4240  C     
40   H        11.0879   13.5520    1.4981  H     
41   H         9.7670   11.9044    0.3521  H     
42   H        10.3970    9.5682    0.4045  H     
43   H        13.8114    7.1938    2.2477  H     
44   H        15.1081    6.7548    4.0903  H     
45   H        18.5468   10.1410    4.5107  H     
46   H        16.5485   10.6487    3.3392  H     
47   H        13.4411   14.5953    1.3382  H     
48   H        14.6996   16.2282    2.5155  H     
49   H        13.4569   12.1137    4.7306  H     
50   H        16.4897   15.7642    5.6143  H     
51   H        16.3144   16.7240    4.2012  H     
52   H        15.7467   17.9606    5.9886  H     
53   H        14.4471   18.4950    4.0775  H     
54   H        13.1570   17.4425    4.6964  H     
55   H        14.2501   19.9971    6.0031  H     
56   H        12.6418   19.7418    5.3205  H     
57   H        14.7893   18.6996    8.1294  H     
58   H        13.4906   17.6922    8.7912  H     
59   H        13.6624   16.1167    6.9176  H     
60   H        15.2682   16.3452    7.6474  H     
61   H        21.4429    7.3548    6.9467  H     
62   H        21.2136    8.8107    7.9033  H     
63   H        20.1130    6.0111    8.5282  H     
64   H        21.3968    6.8675    9.3902  H     
65   H        17.7425    7.0084    8.7650  H     
66   H        17.6150    8.4567    9.7706  H     
67   H        18.8634    9.7977    8.1360  H     
68   H        17.5117    9.0034    7.3434  H     
69   H        16.1548   13.5303    6.3053  H     
70   H        14.7662   12.4774    6.5688  H     
71   H        14.6601   14.1636    7.0547  H     
72   H        16.3003    5.6104    6.1301  H     
73   H        18.0530    5.5885    5.9547  H     
74   H        17.0420    5.0358    4.6206  H     
@<TRIPOS>BOND
     1    1    2 2
     2    1    4 1
     3    2    3 1
     4    3    6 2
     5    4    5 2
     6    4   17 1
     7    5    6 1
     8    5   10 1
     9    6    7 1
    10    7    8 2
    11    8    9 1
    12    9   10 2
    13    9   11 1
    14   11   12 2
    15   11   16 1
    16   12   13 1
    17   13   14 2
    18   13   39 1
    19   14   15 1
    20   14   30 1
    21   15   16 2
    22   17   18 2
    23   17   22 1
    24   18   19 1
    25   19   20 2
    26   20   21 1
    27   20   23 1
    28   21   22 2
    29   21   38 1
    30   23   24 1
    31   24   25 1
    32   24   29 1
    33   25   26 1
    34   26   27 1
    35   27   28 1
    36   28   29 1
    37   30   31 1
    38   30   32 2
    39   31   33 1
    40   31   37 1
    41   33   34 1
    42   34   35 1
    43   35   36 1
    44   36   37 1
    45    1   40 1
    46    2   41 1
    47    3   42 1
    48    8   43 1
    49   12   44 1
    50   15   45 1
    51   16   46 1
    52   18   47 1
    53   19   48 1
    54   22   49 1
    55   23   50 1
    56   23   51 1
    57   24   52 1
    58   25   53 1
    59   25   54 1
    60   26   55 1
    61   26   56 1
    62   28   57 1
    63   28   58 1
    64   29   59 1
    65   29   60 1
    66   33   61 1
    67   33   62 1
    68   34   63 1
    69   34   64 1
    70   36   65 1
    71   36   66 1
    72   37   67 1
    73   37   68 1
    74   38   69 1
    75   38   70 1
    76   38   71 1
    77   39   72 1
    78   39   73 1
    79   39   74 1
@<TRIPOS>PROPERTY_DATA
  Total_Score	| 12.2837
  Crash		| -1.8212
  Polar		| 1.1503
  FragIndex	| 1
  FragRMSD	| 0.218

