@<TRIPOS>MOLECULE
BindingDB_50315238
 72 77 0 0 0
SMALL
NO_CHARGES


@<TRIPOS>ATOM
1    C        11.6852   12.7017    1.8640  C     
2    C        10.8082   11.8745    1.1378  C     
3    C        11.0457   10.4979    1.0669  C     
4    C        12.8383   12.1752    2.5100  C     
5    C        13.0658   10.7680    2.4464  C     
6    C        12.1532    9.9438    1.7276  C     
7    N        12.3749    8.6081    1.6885  N     
8    C        13.3924    8.0313    2.2971  C     
9    C        14.3254    8.7753    2.9963  C     
10   N        14.1080   10.0980    3.0265  N     
11   C        15.4572    8.2052    3.6343  C     
12   C        15.7718    6.8166    3.6174  C     
13   C        16.9254    6.2989    4.2332  C     
14   C        17.8580    7.1530    4.8696  C     
15   N        17.5081    8.4743    4.8766  N     
16   C        16.3936    9.0149    4.3264  C     
17   C        13.7029   13.0850    3.1867  C     
18   C        13.9500   12.9682    4.5725  C     
19   C        14.8230   13.8592    5.2162  C     
20   C        15.4108   14.9647    4.5506  C     
21   C        15.1595   15.0813    3.1613  C     
22   C        14.3193   14.1614    2.4990  C     
23   C        16.4793   15.8126    5.2095  C     
24   N        16.1769   17.1300    5.8920  N     
25   C        15.3161   17.0983    7.1110  C     
26   C        13.8189   16.8276    6.8372  C     
27   S        13.1749   17.8634    5.4926  S     
28   C        14.4830   18.3082    4.3205  C     
29   C        15.8664   18.3027    5.0103  C     
30   N        19.0613    6.7693    5.4307  N     
31   F        15.1568   13.5747    6.4554  F     
32   F        15.7011   16.0179    2.4247  F     
33   C        19.5382    5.3946    5.5212  C     
34   C        20.9159    5.2377    4.8199  C     
35   N        21.8992    6.2394    5.3371  N     
36   C        21.3687    7.6300    5.2436  C     
37   C        20.0034    7.7401    5.9705  C     
38   C        23.2484    6.0932    4.7198  C     
39   O        12.5740   19.1964    6.1207  O     
40   O        12.0131   17.1325    4.6902  O     
41   H        11.4573   13.6951    1.9230  H     
42   H         9.9972   12.2702    0.6609  H     
43   H        10.4174    9.8952    0.5309  H     
44   H        13.4421    7.0507    2.2126  H     
45   H        15.1712    6.1420    3.1444  H     
46   H        17.0604    5.2903    4.1834  H     
47   H        16.2663   10.0269    4.4124  H     
48   H        13.5331   12.2035    5.1073  H     
49   H        14.1580   14.2750    1.4966  H     
50   H        16.9736   15.1933    5.9617  H     
51   H        17.2774   16.0058    4.4866  H     
52   H        17.0953   17.3877    6.2658  H     
53   H        15.7162   16.3324    7.7829  H     
54   H        15.4010   18.0603    7.6350  H     
55   H        13.7220   15.7706    6.6012  H     
56   H        13.2245   17.0120    7.7432  H     
57   H        14.4797   17.5966    3.4903  H     
58   H        14.2809   19.3130    3.9168  H     
59   H        15.9395   19.2152    5.6063  H     
60   H        16.6415   18.3852    4.2366  H     
61   H        19.6461    5.1288    6.5755  H     
62   H        18.8743    4.6483    5.0931  H     
63   H        21.2917    4.2267    5.0057  H     
64   H        20.7825    5.3569    3.7390  H     
65   H        22.0178    6.0415    6.3341  H     
66   H        22.0665    8.3246    5.7164  H     
67   H        21.2465    7.9292    4.1971  H     
68   H        19.6787    8.7765    5.8867  H     
69   H        20.1452    7.5419    7.0376  H     
70   H        23.2217    6.3097    3.6479  H     
71   H        23.6263    5.0781    4.8634  H     
72   H        23.9558    6.7744    5.1982  H     
@<TRIPOS>BOND
     1    1    2 2
     2    1    4 1
     3    2    3 1
     4    3    6 2
     5    4    5 2
     6    4   17 1
     7    5    6 1
     8    5   10 1
     9    6    7 1
    10    7    8 2
    11    8    9 1
    12    9   10 2
    13    9   11 1
    14   11   12 2
    15   11   16 1
    16   12   13 1
    17   13   14 2
    18   14   15 1
    19   14   30 1
    20   15   16 2
    21   17   18 2
    22   17   22 1
    23   18   19 1
    24   19   20 2
    25   19   31 1
    26   20   21 1
    27   20   23 1
    28   21   22 2
    29   21   32 1
    30   23   24 1
    31   24   25 1
    32   24   29 1
    33   25   26 1
    34   26   27 1
    35   27   28 1
    36   27   39 2
    37   27   40 2
    38   28   29 1
    39   30   33 1
    40   30   37 1
    41   33   34 1
    42   34   35 1
    43   35   36 1
    44   35   38 1
    45   36   37 1
    46    1   41 1
    47    2   42 1
    48    3   43 1
    49    8   44 1
    50   12   45 1
    51   13   46 1
    52   16   47 1
    53   18   48 1
    54   22   49 1
    55   23   50 1
    56   23   51 1
    57   24   52 1
    58   25   53 1
    59   25   54 1
    60   26   55 1
    61   26   56 1
    62   28   57 1
    63   28   58 1
    64   29   59 1
    65   29   60 1
    66   33   61 1
    67   33   62 1
    68   34   63 1
    69   34   64 1
    70   35   65 1
    71   36   66 1
    72   36   67 1
    73   37   68 1
    74   37   69 1
    75   38   70 1
    76   38   71 1
    77   38   72 1
@<TRIPOS>PROPERTY_DATA
  Total_Score	| 10.8302
  Crash		| -1.2594
  Polar		| 1.0892
  FragIndex	| 1
  FragRMSD	| 0.863

