@<TRIPOS>MOLECULE
BindingDB_50315247
 66 70 0 0 0
SMALL
NO_CHARGES


@<TRIPOS>ATOM
1    C        11.5674   12.6967    1.9417  C     
2    C        10.8526   11.8185    1.1030  C     
3    C        11.2807   10.4922    0.9262  C     
4    C        12.7416   12.2727    2.6161  C     
5    C        13.1591   10.9291    2.4258  C     
6    C        12.4256   10.0395    1.5990  C     
7    N        12.8621    8.7550    1.4890  N     
8    C        13.9360    8.3072    2.1228  C     
9    C        14.6833    9.1582    2.9085  C     
10   N        14.2669   10.4139    3.0186  N     
11   C        15.8381    8.7866    3.5964  C     
12   C        15.9505    7.5115    4.1953  C     
13   C        17.1247    7.1218    4.8684  C     
14   C        18.2104    8.0191    4.9712  C     
15   C        18.0999    9.3137    4.4203  C     
16   C        16.9246    9.6885    3.7395  C     
17   C        13.4542   13.1658    3.4806  C     
18   C        13.7876   14.4801    3.0752  C     
19   C        14.5155   15.3616    3.9142  C     
20   C        14.9332   14.9062    5.1998  C     
21   C        14.6046   13.5948    5.6069  C     
22   C        13.8676   12.7468    4.7667  C     
23   O        19.1576   10.1816    4.4753  O     
24   C        19.1637   11.0199    5.6429  C     
25   O        19.3171    7.6557    5.6930  O     
26   C        20.4700    7.3294    4.9003  C     
27   O        17.1656    5.9127    5.5055  O     
28   C        17.4337    4.8013    4.6345  C     
29   N        16.9579   15.7540    6.2572  N     
30   C        17.8848   14.9979    5.4298  C     
31   C        18.8815   15.9680    4.7425  C     
32   O        19.5240   16.8294    5.7068  O     
33   C        18.5943   17.5665    6.5270  C     
34   C        17.6034   16.6108    7.2425  C     
35   C        14.7991   16.7267    3.3938  C     
36   C        15.6177   15.7060    6.1103  C     
37   O        14.8786   16.3953    6.8027  O     
38   H        11.2093   13.6466    2.0680  H     
39   H        10.0098   12.1405    0.6251  H     
40   H        10.7550    9.8585    0.3219  H     
41   H        14.1958    7.3586    1.9932  H     
42   H        15.1607    6.8583    4.1697  H     
43   H        16.8788   10.6255    3.3282  H     
44   H        13.5134   14.7984    2.1394  H     
45   H        14.8811   13.2452    6.5310  H     
46   H        13.6285   11.8134    5.1125  H     
47   H        18.2962   11.6826    5.6576  H     
48   H        20.0632   11.6351    5.6170  H     
49   H        19.1844   10.4277    6.5600  H     
50   H        20.2742    6.4953    4.2259  H     
51   H        21.2665    7.0327    5.5800  H     
52   H        20.8181    8.1889    4.3247  H     
53   H        16.6517    4.6862    3.8798  H     
54   H        17.4563    3.8961    5.2412  H     
55   H        18.4009    4.9097    4.1402  H     
56   H        18.4448   14.3073    6.0663  H     
57   H        17.4031   14.3975    4.6551  H     
58   H        19.6552   15.3904    4.2320  H     
59   H        18.3598   16.5723    3.9945  H     
60   H        19.1648   18.1276    7.2704  H     
61   H        18.0428   18.2834    5.9129  H     
62   H        16.9114   17.2165    7.8339  H     
63   H        18.1594   15.9868    7.9491  H     
64   H        15.3266   16.6601    2.4396  H     
65   H        15.4149   17.3210    4.0693  H     
66   H        13.8598   17.2619    3.2391  H     
@<TRIPOS>BOND
     1    1    2 2
     2    1    4 1
     3    2    3 1
     4    3    6 2
     5    4    5 2
     6    4   17 1
     7    5    6 1
     8    5   10 1
     9    6    7 1
    10    7    8 2
    11    8    9 1
    12    9   10 2
    13    9   11 1
    14   11   12 2
    15   11   16 1
    16   12   13 1
    17   13   14 2
    18   13   27 1
    19   14   15 1
    20   14   25 1
    21   15   16 2
    22   15   23 1
    23   17   18 2
    24   17   22 1
    25   18   19 1
    26   19   20 2
    27   19   35 1
    28   20   21 1
    29   20   36 1
    30   21   22 2
    31   23   24 1
    32   25   26 1
    33   27   28 1
    34   29   30 1
    35   29   34 1
    36   29   36 1
    37   30   31 1
    38   31   32 1
    39   32   33 1
    40   33   34 1
    41   36   37 2
    42    1   38 1
    43    2   39 1
    44    3   40 1
    45    8   41 1
    46   12   42 1
    47   16   43 1
    48   18   44 1
    49   21   45 1
    50   22   46 1
    51   24   47 1
    52   24   48 1
    53   24   49 1
    54   26   50 1
    55   26   51 1
    56   26   52 1
    57   28   53 1
    58   28   54 1
    59   28   55 1
    60   30   56 1
    61   30   57 1
    62   31   58 1
    63   31   59 1
    64   33   60 1
    65   33   61 1
    66   34   62 1
    67   34   63 1
    68   35   64 1
    69   35   65 1
    70   35   66 1
@<TRIPOS>PROPERTY_DATA
  Total_Score	| 11.2326
  Crash		| -1.3052
  Polar		| 3.4045
  FragIndex	| 1
  FragRMSD	| 0.368

