@<TRIPOS>MOLECULE
BindingDB_50315244
 63 67 0 0 0
SMALL
NO_CHARGES


@<TRIPOS>ATOM
1    C        11.5505   12.5971    1.7920  C     
2    C        10.7872   11.6470    1.0844  C     
3    C        11.1790   10.2952    1.0645  C     
4    C        12.7397   12.2214    2.4722  C     
5    C        13.1354   10.8626    2.4096  C     
6    C        12.3499    9.9000    1.7322  C     
7    N        12.7557    8.6019    1.7590  N     
8    C        13.8575    8.2112    2.3819  C     
9    C        14.6712    9.1330    3.0073  C     
10   N        14.2742   10.3971    2.9927  N     
11   C        15.8806    8.8321    3.6508  C     
12   C        16.0815    7.6115    4.3424  C     
13   C        17.3115    7.2978    4.9639  C     
14   C        18.3569    8.2491    4.9559  C     
15   C        18.1634    9.4954    4.3252  C     
16   C        16.9506    9.7645    3.6629  C     
17   C        13.4618   13.1783    3.2505  C     
18   C        13.8791   12.8679    4.5680  C     
19   C        14.5725   13.8026    5.3550  C     
20   C        14.8424   15.0948    4.8585  C     
21   C        14.4382   15.4187    3.5442  C     
22   C        13.7600   14.4714    2.7537  C     
23   O        19.1501   10.4492    4.2811  O     
24   C        19.2594   11.2054    5.5001  C     
25   O        19.5245    8.0250    5.6364  O     
26   C        20.6886    7.8789    4.7760  C     
27   O        17.4719    6.1182    5.6449  O     
28   C        17.6763    4.9745    4.7997  C     
29   C        15.4280   16.0364    5.6900  C     
30   N        14.8003   17.1289    6.1691  N     
31   C        13.4229   17.4780    5.8504  C     
32   C        13.3996   18.8772    5.1934  C     
33   O        14.0472   19.8432    6.0451  O     
34   C        15.4056   19.4847    6.3791  C     
35   C        15.4654   18.0845    7.0391  C     
36   O        16.5656   15.7528    6.0490  O     
37   H        11.2201   13.5658    1.8253  H     
38   H         9.9333   11.9357    0.6031  H     
39   H        10.6052    9.6103    0.5619  H     
40   H        14.0892    7.2490    2.3534  H     
41   H        15.3235    6.9298    4.4212  H     
42   H        16.8639   10.6569    3.1735  H     
43   H        13.6508   11.9655    4.9883  H     
44   H        14.8426   13.5477    6.3128  H     
45   H        14.6154   16.3517    3.1646  H     
46   H        13.4803   14.7340    1.8038  H     
47   H        18.3162   11.6694    5.7999  H     
48   H        19.9990   11.9945    5.3487  H     
49   H        19.6209   10.5568    6.3119  H     
50   H        20.5816    7.0305    4.0988  H     
51   H        21.5582    7.7056    5.4226  H     
52   H        20.8676    8.7947    4.2001  H     
53   H        16.7985    4.7668    4.1829  H     
54   H        17.8533    4.1075    5.4396  H     
55   H        18.5452    5.1006    4.1518  H     
56   H        12.9122   16.7834    5.1879  H     
57   H        12.8371   17.5131    6.7776  H     
58   H        13.8937   18.8416    4.2140  H     
59   H        12.3671   19.1948    5.0345  H     
60   H        16.0266   19.4966    5.4777  H     
61   H        15.7988   20.2333    7.0630  H     
62   H        14.9466   18.1172    8.0041  H     
63   H        16.5116   17.8512    7.2487  H     
@<TRIPOS>BOND
     1    1    2 2
     2    1    4 1
     3    2    3 1
     4    3    6 2
     5    4    5 2
     6    4   17 1
     7    5    6 1
     8    5   10 1
     9    6    7 1
    10    7    8 2
    11    8    9 1
    12    9   10 2
    13    9   11 1
    14   11   12 2
    15   11   16 1
    16   12   13 1
    17   13   14 2
    18   13   27 1
    19   14   15 1
    20   14   25 1
    21   15   16 2
    22   15   23 1
    23   17   18 2
    24   17   22 1
    25   18   19 1
    26   19   20 2
    27   20   21 1
    28   20   29 1
    29   21   22 2
    30   23   24 1
    31   25   26 1
    32   27   28 1
    33   29   30 1
    34   29   36 2
    35   30   31 1
    36   30   35 1
    37   31   32 1
    38   32   33 1
    39   33   34 1
    40   34   35 1
    41    1   37 1
    42    2   38 1
    43    3   39 1
    44    8   40 1
    45   12   41 1
    46   16   42 1
    47   18   43 1
    48   19   44 1
    49   21   45 1
    50   22   46 1
    51   24   47 1
    52   24   48 1
    53   24   49 1
    54   26   50 1
    55   26   51 1
    56   26   52 1
    57   28   53 1
    58   28   54 1
    59   28   55 1
    60   31   56 1
    61   31   57 1
    62   32   58 1
    63   32   59 1
    64   34   60 1
    65   34   61 1
    66   35   62 1
    67   35   63 1
@<TRIPOS>PROPERTY_DATA
  Total_Score	| 10.2465
  Crash		| -1.6651
  Polar		| 2.1970
  FragIndex	| 1
  FragRMSD	| 0.968

