@<TRIPOS>MOLECULE
BindingDB_50315231
 66 71 0 0 0
SMALL
NO_CHARGES


@<TRIPOS>ATOM
1    C        11.5514   12.7375    1.7717  C     
2    C        10.7494   11.8381    1.0443  C     
3    C        11.0834   10.4745    0.9859  C     
4    C        12.7163   12.3035    2.4591  C     
5    C        13.0603   10.9225    2.3701  C     
6    C        12.2372   10.0210    1.6455  C     
7    N        12.6002    8.7046    1.6167  N     
8    C        13.6764    8.2473    2.2413  C     
9    C        14.4880    9.1057    2.9466  C     
10   N        14.1617   10.3977    2.9688  N     
11   C        15.6026    8.7027    3.6634  C     
12   C        13.4830   13.2461    3.1942  C     
13   C        13.8407   13.0220    4.5424  C     
14   C        14.6330   13.9491    5.2442  C     
15   C        15.1545   15.1017    4.6057  C     
16   C        14.7376   15.3487    3.2679  C     
17   C        13.9249   14.4371    2.5735  C     
18   C        16.1622   16.0018    5.2614  C     
19   N        15.7159   17.2874    5.9044  N     
20   C        15.3302   17.1924    7.3485  C     
21   C        13.8655   16.7172    7.5230  C     
22   O        12.9442   17.5254    6.7418  O     
23   C        13.2554   17.5897    5.3276  C     
24   C        14.7154   18.0899    5.1193  C     
25   F        15.0136   13.6092    6.4506  F     
26   F        15.1800   16.3732    2.5945  F     
27   C        15.9174    7.4131    4.0702  C     
28   N        17.0780    7.4343    4.7541  N     
29   N        17.5165    8.6591    4.8067  N     
30   C        16.6589    9.4623    4.1577  C     
31   C        17.7161    6.2947    5.3588  C     
32   C        16.9210    5.8258    6.6184  C     
33   C        17.4727    4.5034    7.1948  C     
34   N        17.5396    3.4762    6.1312  N     
35   C        18.4221    3.8477    5.0007  C     
36   C        17.9018    5.1381    4.3247  C     
37   H        11.2636   13.7170    1.8253  H     
38   H         9.9094   12.1721    0.5783  H     
39   H        10.5033    9.8334    0.4652  H     
40   H        13.8876    7.2819    2.1484  H     
41   H        13.5172   12.1713    5.0257  H     
42   H        13.6772   14.6273    1.5994  H     
43   H        16.7137   15.4204    6.0011  H     
44   H        16.9201   16.2793    4.5309  H     
45   H        16.5684   17.8625    5.8992  H     
46   H        16.0057   16.5211    7.8831  H     
47   H        15.4553   18.1840    7.8070  H     
48   H        13.8262   15.6705    7.2228  H     
49   H        13.5835   16.8129    8.5881  H     
50   H        13.1176   16.6113    4.8486  H     
51   H        12.5705   18.2992    4.8463  H     
52   H        14.7705   19.1293    5.4647  H     
53   H        14.9613   18.1116    4.0589  H     
54   H        15.3468    6.5843    3.9008  H     
55   H        16.7807   10.4732    4.0462  H     
56   H        18.7154    6.5864    5.7001  H     
57   H        16.9672    6.6003    7.3892  H     
58   H        15.8681    5.6727    6.3593  H     
59   H        18.4618    4.6671    7.6254  H     
60   H        16.8109    4.1496    7.9892  H     
61   H        17.8684    2.5987    6.5381  H     
62   H        16.5878    3.3374    5.7695  H     
63   H        19.4440    3.9954    5.3568  H     
64   H        18.4278    3.0272    4.2795  H     
65   H        16.9474    4.9034    3.8411  H     
66   H        18.6050    5.4454    3.5460  H     
@<TRIPOS>BOND
     1    1    2 2
     2    1    4 1
     3    2    3 1
     4    3    6 2
     5    4    5 2
     6    4   12 1
     7    5    6 1
     8    5   10 1
     9    6    7 1
    10    7    8 2
    11    8    9 1
    12    9   10 2
    13    9   11 1
    14   11   27 2
    15   11   30 1
    16   12   13 2
    17   12   17 1
    18   13   14 1
    19   14   15 2
    20   14   25 1
    21   15   16 1
    22   15   18 1
    23   16   17 2
    24   16   26 1
    25   18   19 1
    26   19   20 1
    27   19   24 1
    28   20   21 1
    29   21   22 1
    30   22   23 1
    31   23   24 1
    32   27   28 1
    33   28   29 1
    34   28   31 1
    35   29   30 2
    36   31   32 1
    37   31   36 1
    38   32   33 1
    39   33   34 1
    40   34   35 1
    41   35   36 1
    42    1   37 1
    43    2   38 1
    44    3   39 1
    45    8   40 1
    46   13   41 1
    47   17   42 1
    48   18   43 1
    49   18   44 1
    50   19   45 1
    51   20   46 1
    52   20   47 1
    53   21   48 1
    54   21   49 1
    55   23   50 1
    56   23   51 1
    57   24   52 1
    58   24   53 1
    59   27   54 1
    60   30   55 1
    61   31   56 1
    62   32   57 1
    63   32   58 1
    64   33   59 1
    65   33   60 1
    66   34   61 1
    67   34   62 1
    68   35   63 1
    69   35   64 1
    70   36   65 1
    71   36   66 1
@<TRIPOS>PROPERTY_DATA
  Total_Score	| 12.2992
  Crash		| -1.2600
  Polar		| 2.3453
  FragIndex	| 1
  FragRMSD	| 0.486

