@<TRIPOS>MOLECULE
BindingDB_50315249
 68 72 0 0 0
SMALL
NO_CHARGES


@<TRIPOS>ATOM
1    C        11.6140   12.5346    1.8571  C     
2    C        10.8009   11.6007    1.1896  C     
3    C        11.1578   10.2433    1.1586  C     
4    C        12.8286   12.1475    2.4892  C     
5    C        13.1678   10.7701    2.4409  C     
6    C        12.3361    9.8207    1.7926  C     
7    N        12.7030    8.5132    1.8054  N     
8    C        13.8124    8.0848    2.3992  C     
9    C        14.6742    8.9835    3.0020  C     
10   N        14.2926   10.2557    2.9896  N     
11   C        15.8850    8.6637    3.6444  C     
12   C        16.9309    9.6189    3.7290  C     
13   C        18.1286    9.3585    4.4160  C     
14   C        18.3383    8.0900    4.9963  C     
15   C        17.3236    7.1124    4.9330  C     
16   C        16.1259    7.3958    4.2430  C     
17   C        13.6682   13.1638    3.0792  C     
18   C        14.2337   13.1404    4.3982  C     
19   C        14.9760   14.2551    4.8717  C     
20   C        15.1578   15.4147    4.0975  C     
21   C        14.6642   15.4105    2.7797  C     
22   C        13.9427   14.3088    2.2874  C     
23   O        17.5322    5.8801    5.4994  O     
24   C        16.8672    5.6888    6.7658  C     
25   O        19.4958    7.8518    5.6826  O     
26   C        20.6251    7.5833    4.8376  C     
27   O        19.1091   10.3082    4.4162  O     
28   C        19.0752   11.1838    5.5561  C     
29   C        15.8710   16.6001    4.6647  C     
30   N        15.0771   17.4844    5.5788  N     
31   C        14.0105   18.2758    4.8912  C     
32   C        13.3858   19.2886    5.8810  C     
33   O        12.9034   18.6165    7.0608  O     
34   C        13.9200   17.8656    7.7524  C     
35   C        14.5590   16.8152    6.8133  C     
36   C        14.1604   11.9722    5.3046  C     
37   H        11.3153   13.5110    1.8653  H     
38   H         9.9452   11.9133    0.7319  H     
39   H        10.5419    9.5656    0.7041  H     
40   H        14.0155    7.1156    2.3824  H     
41   H        16.8268   10.5331    3.2796  H     
42   H        15.4064    6.6674    4.2247  H     
43   H        15.3974   14.2175    5.8046  H     
44   H        14.8241   16.2155    2.1639  H     
45   H        13.6110   14.3646    1.3163  H     
46   H        17.0665    6.5056    7.4637  H     
47   H        17.2416    4.7630    7.2109  H     
48   H        15.7919    5.5784    6.6254  H     
49   H        20.4510    6.6966    4.2212  H     
50   H        21.4845    7.3967    5.4837  H     
51   H        20.8590    8.4369    4.1945  H     
52   H        18.1356   11.7416    5.6104  H     
53   H        19.8904   11.9046    5.4427  H     
54   H        19.2297   10.6380    6.4906  H     
55   H        16.7584   16.2460    5.2031  H     
56   H        16.2636   17.2110    3.8482  H     
57   H        15.7513   18.1726    5.9160  H     
58   H        14.4264   18.8250    4.0480  H     
59   H        13.2264   17.6135    4.5137  H     
60   H        14.1170   20.0486    6.1646  H     
61   H        12.5515   19.7933    5.4034  H     
62   H        14.6879   18.5446    8.1345  H     
63   H        13.4610   17.3625    8.6073  H     
64   H        13.8038   16.0681    6.5613  H     
65   H        15.3716   16.3174    7.3494  H     
66   H        13.1713   11.5197    5.2653  H     
67   H        14.3790   12.2252    6.3482  H     
68   H        14.9141   11.2579    4.9749  H     
@<TRIPOS>BOND
     1    1    2 2
     2    1    4 1
     3    2    3 1
     4    3    6 2
     5    4    5 2
     6    4   17 1
     7    5    6 1
     8    5   10 1
     9    6    7 1
    10    7    8 2
    11    8    9 1
    12    9   10 2
    13    9   11 1
    14   11   12 2
    15   11   16 1
    16   12   13 1
    17   13   14 2
    18   13   27 1
    19   14   15 1
    20   14   25 1
    21   15   16 2
    22   15   23 1
    23   17   18 2
    24   17   22 1
    25   18   19 1
    26   18   36 1
    27   19   20 2
    28   20   21 1
    29   20   29 1
    30   21   22 2
    31   23   24 1
    32   25   26 1
    33   27   28 1
    34   29   30 1
    35   30   31 1
    36   30   35 1
    37   31   32 1
    38   32   33 1
    39   33   34 1
    40   34   35 1
    41    1   37 1
    42    2   38 1
    43    3   39 1
    44    8   40 1
    45   12   41 1
    46   16   42 1
    47   19   43 1
    48   21   44 1
    49   22   45 1
    50   24   46 1
    51   24   47 1
    52   24   48 1
    53   26   49 1
    54   26   50 1
    55   26   51 1
    56   28   52 1
    57   28   53 1
    58   28   54 1
    59   29   55 1
    60   29   56 1
    61   30   57 1
    62   31   58 1
    63   31   59 1
    64   32   60 1
    65   32   61 1
    66   34   62 1
    67   34   63 1
    68   35   64 1
    69   35   65 1
    70   36   66 1
    71   36   67 1
    72   36   68 1
@<TRIPOS>PROPERTY_DATA
  Total_Score	| 12.2940
  Crash		| -1.9800
  Polar		| 2.2482
  FragIndex	| 1
  FragRMSD	| 0.323

