@<TRIPOS>MOLECULE
BindingDB_50315237
 71 76 0 0 0
SMALL
NO_CHARGES


@<TRIPOS>ATOM
1    C        11.5913   12.5327    1.7430  C     
2    C        10.7309   11.6226    1.0998  C     
3    C        11.0194   10.2503    1.1069  C     
4    C        12.7739   12.1016    2.4009  C     
5    C        13.0655   10.7109    2.3697  C     
6    C        12.1821    9.7958    1.7431  C     
7    N        12.4864    8.4681    1.7893  N     
8    C        13.5768    7.9975    2.3858  C     
9    C        14.4742    8.8552    2.9950  C     
10   N        14.1627   10.1542    2.9441  N     
11   C        15.6433    8.4830    3.7016  C     
12   C        16.6184    9.4573    4.0768  C     
13   C        17.7710    9.1229    4.7911  C     
14   C        18.0695    7.7853    5.1465  C     
15   C        17.1138    6.8037    4.7648  C     
16   C        15.9362    7.1408    4.0803  C     
17   C        13.5800   13.0429    3.1189  C     
18   C        14.0680   14.2173    2.4967  C     
19   C        14.8314   15.1616    3.2094  C     
20   C        15.1451   14.9610    4.5784  C     
21   C        14.6626   13.7819    5.2031  C     
22   C        13.8866   12.8548    4.4866  C     
23   C        15.9645   15.9621    5.3384  C     
24   N        15.2325   17.0098    6.1413  N     
25   C        13.8278   16.6640    6.5353  C     
26   C        13.2597   17.7184    7.5281  C     
27   O        13.3947   19.0503    6.9976  O     
28   C        14.7494   19.3964    6.6479  C     
29   C        15.3117   18.4030    5.5990  C     
30   N        19.2341    7.4562    5.7863  N     
31   F        15.2254   16.2421    2.5807  F     
32   F        14.8838   13.5402    6.4650  F     
33   C        19.5001    7.8110    7.1720  C     
34   C        20.8244    8.6086    7.3072  C     
35   N        21.9691    7.9486    6.5997  N     
36   C        21.6069    7.6092    5.1897  C     
37   C        20.3048    6.7635    5.0983  C     
38   C        22.5774    6.8065    7.3470  C     
39   H        11.3192   13.5185    1.7541  H     
40   H         9.8748   11.9533    0.6523  H     
41   H        10.3807    9.5926    0.6542  H     
42   H        13.7132    7.0171    2.3855  H     
43   H        16.4922   10.4450    3.8358  H     
44   H        18.4464    9.8687    4.9850  H     
45   H        17.2490    5.8192    5.0234  H     
46   H        15.3021    6.3699    3.8333  H     
47   H        13.8764   14.3916    1.5063  H     
48   H        13.5146   12.0440    4.9939  H     
49   H        16.6047   15.4329    6.0525  H     
50   H        16.6759   16.4284    4.6393  H     
51   H        15.7505   17.0591    7.0220  H     
52   H        13.1880   16.6358    5.6491  H     
53   H        13.8218   15.6815    7.0162  H     
54   H        12.2004   17.5322    7.6915  H     
55   H        13.7623   17.6427    8.4981  H     
56   H        14.7561   20.4087    6.2422  H     
57   H        15.3794   19.3890    7.5389  H     
58   H        16.3532   18.6746    5.4048  H     
59   H        14.7454   18.4957    4.6632  H     
60   H        18.6932    8.3780    7.6495  H     
61   H        19.5866    6.8867    7.7461  H     
62   H        20.6715    9.5973    6.8758  H     
63   H        21.0511    8.7583    8.3662  H     
64   H        22.7032    8.6536    6.5431  H     
65   H        21.4549    8.5388    4.6366  H     
66   H        22.4187    7.0796    4.6878  H     
67   H        20.4473    5.7867    5.5568  H     
68   H        20.1053    6.5955    4.0362  H     
69   H        21.8842    5.9754    7.4693  H     
70   H        22.9010    7.1279    8.3401  H     
71   H        23.4607    6.4416    6.8211  H     
@<TRIPOS>BOND
     1    1    2 2
     2    1    4 1
     3    2    3 1
     4    3    6 2
     5    4    5 2
     6    4   17 1
     7    5    6 1
     8    5   10 1
     9    6    7 1
    10    7    8 2
    11    8    9 1
    12    9   10 2
    13    9   11 1
    14   11   12 2
    15   11   16 1
    16   12   13 1
    17   13   14 2
    18   14   15 1
    19   14   30 1
    20   15   16 2
    21   17   18 2
    22   17   22 1
    23   18   19 1
    24   19   20 2
    25   19   31 1
    26   20   21 1
    27   20   23 1
    28   21   22 2
    29   21   32 1
    30   23   24 1
    31   24   25 1
    32   24   29 1
    33   25   26 1
    34   26   27 1
    35   27   28 1
    36   28   29 1
    37   30   33 1
    38   30   37 1
    39   33   34 1
    40   34   35 1
    41   35   36 1
    42   35   38 1
    43   36   37 1
    44    1   39 1
    45    2   40 1
    46    3   41 1
    47    8   42 1
    48   12   43 1
    49   13   44 1
    50   15   45 1
    51   16   46 1
    52   18   47 1
    53   22   48 1
    54   23   49 1
    55   23   50 1
    56   24   51 1
    57   25   52 1
    58   25   53 1
    59   26   54 1
    60   26   55 1
    61   28   56 1
    62   28   57 1
    63   29   58 1
    64   29   59 1
    65   33   60 1
    66   33   61 1
    67   34   62 1
    68   34   63 1
    69   35   64 1
    70   36   65 1
    71   36   66 1
    72   37   67 1
    73   37   68 1
    74   38   69 1
    75   38   70 1
    76   38   71 1
@<TRIPOS>PROPERTY_DATA
  Total_Score	| 10.9422
  Crash		| -1.4468
  Polar		| 1.1784
  FragIndex	| 1
  FragRMSD	| 0.487

