@<TRIPOS>MOLECULE
BindingDB_50315235
 71 76 0 0 0
SMALL
NO_CHARGES


@<TRIPOS>ATOM
1    C        11.5167   12.8866    1.6143  C     
2    C        10.6959   11.9696    0.9338  C     
3    C        10.9989   10.5982    0.9493  C     
4    C        12.6652   12.4521    2.3167  C     
5    C        12.9751   11.0671    2.3082  C     
6    C        12.1390   10.1444    1.6307  C     
7    N        12.5002    8.8313    1.6361  N     
8    C        13.5811    8.3918    2.2585  C     
9    C        14.4309    9.2640    2.9143  C     
10   N        14.0888   10.5493    2.8970  N     
11   C        15.6103    8.8775    3.5803  C     
12   C        15.8048    7.5671    4.0898  C     
13   C        16.9953    7.1714    4.7477  C     
14   C        18.0352    8.1261    4.9178  C     
15   C        17.8547    9.4360    4.4246  C     
16   C        16.6644    9.8052    3.7747  C     
17   C        13.4871   13.4002    2.9977  C     
18   C        13.8750   13.2184    4.3414  C     
19   C        14.7571   14.1188    4.9767  C     
20   C        15.2427   15.2615    4.3051  C     
21   C        14.8636   15.4336    2.9550  C     
22   C        14.0028   14.5269    2.3132  C     
23   C        16.1972   16.2316    4.9365  C     
24   N        15.6589   17.4298    5.6671  N     
25   C        14.5922   18.2181    4.9739  C     
26   C        13.1613   17.7471    5.3396  C     
27   O        12.9824   17.7359    6.7689  O     
28   C        13.9136   16.8824    7.4593  C     
29   C        15.3773   17.2723    7.1342  C     
30   C        19.2204    7.8314    5.5833  C     
31   N        19.4660    8.0944    6.8837  N     
32   O        20.0441    7.2583    4.8824  O     
33   C        20.7015    7.6781    7.5343  C     
34   C        20.3706    6.7900    8.7602  C     
35   O        19.4419    7.4552    9.6400  O     
36   C        18.2190    7.8572    8.9901  C     
37   C        18.5155    8.7582    7.7635  C     
38   C        17.0657    5.7661    5.2354  C     
39   F        15.1393   13.8370    6.1901  F     
40   H        11.2536   13.8754    1.6086  H     
41   H         9.8740   12.3005    0.4306  H     
42   H        10.4019    9.9429    0.4434  H     
43   H        13.7859    7.4244    2.1855  H     
44   H        15.0484    6.8831    4.0235  H     
45   H        18.5789   10.1477    4.5594  H     
46   H        16.5903   10.7633    3.4209  H     
47   H        13.5219   12.4173    4.8636  H     
48   H        15.2357   16.2156    2.4106  H     
49   H        13.7787   14.6845    1.3260  H     
50   H        16.8847   15.6862    5.5817  H     
51   H        16.8453   16.6321    4.1489  H     
52   H        16.4648   18.0587    5.6589  H     
53   H        14.6931   19.2609    5.2856  H     
54   H        14.7226   18.1983    3.8884  H     
55   H        12.4345   18.4333    4.9065  H     
56   H        12.9640   16.7554    4.9327  H     
57   H        13.7423   16.9981    8.5333  H     
58   H        13.7319   15.8371    7.2054  H     
59   H        16.0615   16.5600    7.5998  H     
60   H        15.5716   18.2408    7.6020  H     
61   H        21.3820    7.1160    6.8892  H     
62   H        21.2436    8.5656    7.8720  H     
63   H        19.9536    5.8339    8.4301  H     
64   H        21.2852    6.5836    9.3200  H     
65   H        17.6524    6.9761    8.6757  H     
66   H        17.6144    8.4092    9.7122  H     
67   H        18.9517    9.6983    8.1106  H     
68   H        17.5630    9.0062    7.2902  H     
69   H        16.2534    5.5870    5.9422  H     
70   H        18.0031    5.5314    5.7397  H     
71   H        16.9637    5.0791    4.3906  H     
@<TRIPOS>BOND
     1    1    2 2
     2    1    4 1
     3    2    3 1
     4    3    6 2
     5    4    5 2
     6    4   17 1
     7    5    6 1
     8    5   10 1
     9    6    7 1
    10    7    8 2
    11    8    9 1
    12    9   10 2
    13    9   11 1
    14   11   12 2
    15   11   16 1
    16   12   13 1
    17   13   14 2
    18   13   38 1
    19   14   15 1
    20   14   30 1
    21   15   16 2
    22   17   18 2
    23   17   22 1
    24   18   19 1
    25   19   20 2
    26   19   39 1
    27   20   21 1
    28   20   23 1
    29   21   22 2
    30   23   24 1
    31   24   25 1
    32   24   29 1
    33   25   26 1
    34   26   27 1
    35   27   28 1
    36   28   29 1
    37   30   31 1
    38   30   32 2
    39   31   33 1
    40   31   37 1
    41   33   34 1
    42   34   35 1
    43   35   36 1
    44   36   37 1
    45    1   40 1
    46    2   41 1
    47    3   42 1
    48    8   43 1
    49   12   44 1
    50   15   45 1
    51   16   46 1
    52   18   47 1
    53   21   48 1
    54   22   49 1
    55   23   50 1
    56   23   51 1
    57   24   52 1
    58   25   53 1
    59   25   54 1
    60   26   55 1
    61   26   56 1
    62   28   57 1
    63   28   58 1
    64   29   59 1
    65   29   60 1
    66   33   61 1
    67   33   62 1
    68   34   63 1
    69   34   64 1
    70   36   65 1
    71   36   66 1
    72   37   67 1
    73   37   68 1
    74   38   69 1
    75   38   70 1
    76   38   71 1
@<TRIPOS>PROPERTY_DATA
  Total_Score	| 11.5295
  Crash		| -1.0399
  Polar		| 1.0774
  FragIndex	| 1
  FragRMSD	| 1.392

