@<TRIPOS>MOLECULE
BindingDB_50315243
 66 70 0 0 0
SMALL
NO_CHARGES


@<TRIPOS>ATOM
1    C        11.5620   12.3938    1.8006  C     
2    C        10.7846   11.3899    1.1928  C     
3    C        11.2030   10.0496    1.2405  C     
4    C        12.7770   12.0763    2.4592  C     
5    C        13.1866   10.7203    2.5084  C     
6    C        12.3962    9.7144    1.9025  C     
7    N        12.8325    8.4304    1.9689  N     
8    C        13.9602    8.0877    2.5788  C     
9    C        14.7670    9.0417    3.1596  C     
10   N        14.3444   10.3034    3.0943  N     
11   C        15.9938    8.7640    3.7889  C     
12   C        16.2696    7.5126    4.4001  C     
13   C        17.4989    7.2485    5.0402  C     
14   C        18.5131    8.2284    5.0357  C     
15   C        18.2736    9.4773    4.4301  C     
16   C        17.0282    9.7357    3.8225  C     
17   C        13.5706   13.1163    3.0128  C     
18   C        14.0743   14.1376    2.1784  C     
19   C        14.8620   15.1754    2.7102  C     
20   C        15.1671   15.2271    4.0909  C     
21   C        14.6668   14.1964    4.9238  C     
22   C        13.8833   13.1535    4.3938  C     
23   O        19.2974   10.3825    4.3250  O     
24   C        19.3528   11.3438    5.3925  C     
25   O        19.7089    7.9957    5.6646  O     
26   C        20.8107    7.7908    4.7611  C     
27   O        17.7479    6.0286    5.6145  O     
28   C        16.9790    5.7724    6.8021  C     
29   C        15.9855   16.3457    4.6320  C     
30   C        15.1833   17.5599    4.8092  C     
31   N        14.8162   18.1599    5.9613  N     
32   O        14.8210   18.0561    3.7432  O     
33   C        14.0187   19.3852    5.9695  C     
34   C        12.6738   19.1034    6.6858  C     
35   O        12.8953   18.5745    8.0098  O     
36   C        13.7374   17.4054    8.0301  C     
37   C        15.0816   17.6465    7.2982  C     
38   F         9.6781   11.6988    0.5768  F     
39   H        11.2346   13.3621    1.7601  H     
40   H        10.6498    9.3189    0.7895  H     
41   H        14.2181    7.1324    2.5552  H     
42   H        15.5615    6.7777    4.4164  H     
43   H        16.9016   10.6415    3.3626  H     
44   H        13.8830   14.1298    1.1696  H     
45   H        15.2179   15.8924    2.0730  H     
46   H        14.8656   14.2028    5.9281  H     
47   H        13.5292   12.4244    5.0236  H     
48   H        18.4885   12.0135    5.3576  H     
49   H        20.2553   11.9413    5.2534  H     
50   H        19.4061   10.8612    6.3731  H     
51   H        20.6523    6.9037    4.1402  H     
52   H        21.7125    7.6352    5.3559  H     
53   H        20.9696    8.6639    4.1203  H     
54   H        17.0598    6.5887    7.5258  H     
55   H        17.3615    4.8637    7.2678  H     
56   H        15.9292    5.6075    6.5508  H     
57   H        16.4927   16.0327    5.5380  H     
58   H        16.8004   16.5505    3.9289  H     
59   H        14.5520   20.1736    6.5112  H     
60   H        13.7885   19.7905    4.9808  H     
61   H        12.1012   20.0317    6.7762  H     
62   H        12.0862   18.3921    6.0967  H     
63   H        13.9295   17.1560    9.0705  H     
64   H        13.2141   16.5612    7.5775  H     
65   H        15.6340   16.7123    7.3394  H     
66   H        15.6645   18.3852    7.8573  H     
@<TRIPOS>BOND
     1    1    2 2
     2    1    4 1
     3    2    3 1
     4    2   38 1
     5    3    6 2
     6    4    5 2
     7    4   17 1
     8    5    6 1
     9    5   10 1
    10    6    7 1
    11    7    8 2
    12    8    9 1
    13    9   10 2
    14    9   11 1
    15   11   12 2
    16   11   16 1
    17   12   13 1
    18   13   14 2
    19   13   27 1
    20   14   15 1
    21   14   25 1
    22   15   16 2
    23   15   23 1
    24   17   18 2
    25   17   22 1
    26   18   19 1
    27   19   20 2
    28   20   21 1
    29   20   29 1
    30   21   22 2
    31   23   24 1
    32   25   26 1
    33   27   28 1
    34   29   30 1
    35   30   31 am
    36   30   32 2
    37   31   33 1
    38   31   37 1
    39   33   34 1
    40   34   35 1
    41   35   36 1
    42   36   37 1
    43    1   39 1
    44    3   40 1
    45    8   41 1
    46   12   42 1
    47   16   43 1
    48   18   44 1
    49   19   45 1
    50   21   46 1
    51   22   47 1
    52   24   48 1
    53   24   49 1
    54   24   50 1
    55   26   51 1
    56   26   52 1
    57   26   53 1
    58   28   54 1
    59   28   55 1
    60   28   56 1
    61   29   57 1
    62   29   58 1
    63   33   59 1
    64   33   60 1
    65   34   61 1
    66   34   62 1
    67   36   63 1
    68   36   64 1
    69   37   65 1
    70   37   66 1
@<TRIPOS>PROPERTY_DATA
  Total_Score	| 11.2236
  Crash		| -2.3293
  Polar		| 2.3153
  FragIndex	| 1
  FragRMSD	| 0.398

