@<TRIPOS>MOLECULE
BindingDB_50315236
 71 76 0 0 0
SMALL
NO_CHARGES


@<TRIPOS>ATOM
1    C        11.5905   12.8223    1.6582  C     
2    C        10.8022   11.9431    0.8976  C     
3    C        11.1030   10.5762    0.8565  C     
4    C        12.7036   12.3556    2.4072  C     
5    C        13.0108   10.9667    2.3440  C     
6    C        12.2080   10.0894    1.5711  C     
7    N        12.5337    8.7728    1.5390  N     
8    C        13.5695    8.2782    2.2002  C     
9    C        14.3953    9.0956    2.9477  C     
10   N        14.0703   10.3893    2.9767  N     
11   C        15.5263    8.6554    3.6633  C     
12   C        16.4793    9.5874    4.1564  C     
13   C        17.6409    9.1935    4.8602  C     
14   C        17.8521    7.8098    5.1042  C     
15   C        16.9075    6.8692    4.6419  C     
16   C        15.7732    7.2839    3.9290  C     
17   C        13.4705   13.3050    3.1530  C     
18   C        13.8469   13.0777    4.4930  C     
19   C        14.6648   13.9983    5.1871  C     
20   C        15.1140   15.2014    4.5693  C     
21   C        14.7239   15.4197    3.2216  C     
22   C        13.9099   14.4992    2.5326  C     
23   C        16.1167   16.1035    5.2419  C     
24   N        15.6766   17.3867    5.9064  N     
25   C        14.6875   18.2420    5.1516  C     
26   C        13.2110   17.8046    5.4428  C     
27   O        12.9368   17.6923    6.8566  O     
28   C        13.8532   16.8245    7.5732  C     
29   C        15.3224   17.2791    7.3575  C     
30   C        18.9270    7.3305    5.8355  C     
31   N        19.0482    7.4421    7.1734  N     
32   O        19.7681    6.7475    5.1582  O     
33   C        20.2273    6.9632    7.8728  C     
34   C        20.8347    8.1214    8.7034  C     
35   O        19.8409    8.7090    9.5690  O     
36   C        18.6728    9.1822    8.8678  C     
37   C        18.0343    8.0443    8.0312  C     
38   C        18.5727   10.2754    5.2884  C     
39   F        14.9665   13.6967    6.4249  F     
40   F        15.0682   16.4908    2.5611  F     
41   H        11.3356   13.8139    1.6703  H     
42   H        10.0101   12.3059    0.3688  H     
43   H        10.5152    9.9469    0.3097  H     
44   H        13.7283    7.3059    2.1140  H     
45   H        16.3397   10.5863    3.9830  H     
46   H        17.0239    5.8700    4.8416  H     
47   H        15.1228    6.5560    3.6316  H     
48   H        13.5329   12.2323    4.9792  H     
49   H        13.6670   14.6891    1.5552  H     
50   H        16.7013   15.5181    5.9635  H     
51   H        16.8655   16.3685    4.4918  H     
52   H        16.5329   17.9476    5.9107  H     
53   H        14.7953   19.2859    5.4978  H     
54   H        14.9132   18.2084    4.0809  H     
55   H        12.5345   18.5539    5.0171  H     
56   H        12.9623   16.8500    4.9655  H     
57   H        13.6175   16.8597    8.6380  H     
58   H        13.7378   15.7833    7.2487  H     
59   H        16.0004   16.5987    7.8901  H     
60   H        15.4508   18.2672    7.8199  H     
61   H        19.9369    6.1499    8.5441  H     
62   H        21.0111    6.5748    7.2163  H     
63   H        21.6458    7.7349    9.3225  H     
64   H        21.2501    8.8835    8.0366  H     
65   H        17.9508    9.5422    9.6029  H     
66   H        18.9397   10.0203    8.2187  H     
67   H        17.1750    8.4563    7.4990  H     
68   H        17.6464    7.2797    8.7108  H     
69   H        18.8990   10.8404    4.4117  H     
70   H        19.4658    9.9005    5.7924  H     
71   H        18.0510   10.9524    5.9703  H     
@<TRIPOS>BOND
     1    1    2 2
     2    1    4 1
     3    2    3 1
     4    3    6 2
     5    4    5 2
     6    4   17 1
     7    5    6 1
     8    5   10 1
     9    6    7 1
    10    7    8 2
    11    8    9 1
    12    9   10 2
    13    9   11 1
    14   11   12 2
    15   11   16 1
    16   12   13 1
    17   13   14 2
    18   13   38 1
    19   14   15 1
    20   14   30 1
    21   15   16 2
    22   17   18 2
    23   17   22 1
    24   18   19 1
    25   19   20 2
    26   19   39 1
    27   20   21 1
    28   20   23 1
    29   21   22 2
    30   21   40 1
    31   23   24 1
    32   24   25 1
    33   24   29 1
    34   25   26 1
    35   26   27 1
    36   27   28 1
    37   28   29 1
    38   30   31 1
    39   30   32 2
    40   31   33 1
    41   31   37 1
    42   33   34 1
    43   34   35 1
    44   35   36 1
    45   36   37 1
    46    1   41 1
    47    2   42 1
    48    3   43 1
    49    8   44 1
    50   12   45 1
    51   15   46 1
    52   16   47 1
    53   18   48 1
    54   22   49 1
    55   23   50 1
    56   23   51 1
    57   24   52 1
    58   25   53 1
    59   25   54 1
    60   26   55 1
    61   26   56 1
    62   28   57 1
    63   28   58 1
    64   29   59 1
    65   29   60 1
    66   33   61 1
    67   33   62 1
    68   34   63 1
    69   34   64 1
    70   36   65 1
    71   36   66 1
    72   37   67 1
    73   37   68 1
    74   38   69 1
    75   38   70 1
    76   38   71 1
@<TRIPOS>PROPERTY_DATA
  Total_Score	| 11.3296
  Crash		| -0.9415
  Polar		| 1.1491
  FragIndex	| 1
  FragRMSD	| 0.533

