@<TRIPOS>MOLECULE
BindingDB_50315248
 65 69 0 0 0
SMALL
NO_CHARGES


@<TRIPOS>ATOM
1    C        11.5487   12.3392    1.8050  C     
2    C        10.7815   11.3356    1.1853  C     
3    C        11.2113    9.9963    1.2095  C     
4    C        12.7675   12.0266    2.4567  C     
5    C        13.1885   10.6712    2.4828  C     
6    C        12.4071    9.6624    1.8678  C     
7    N        12.8479    8.3787    1.9368  N     
8    C        13.9697    8.0368    2.5588  C     
9    C        14.7649    8.9954    3.1486  C     
10   N        14.3392   10.2533    3.0799  N     
11   C        15.9810    8.7318    3.7991  C     
12   C        17.0188    9.7004    3.8077  C     
13   C        18.2609    9.4521    4.4256  C     
14   C        18.4938    8.2126    5.0577  C     
15   C        17.4752    7.2360    5.0820  C     
16   C        16.2376    7.4959    4.4518  C     
17   C        13.5214   13.0571    3.0885  C     
18   C        13.8661   12.9738    4.4575  C     
19   C        14.6128   13.9890    5.0814  C     
20   C        15.0256   15.1287    4.3468  C     
21   C        14.6842   15.2105    2.9774  C     
22   C        13.9469   14.1882    2.3563  C     
23   O        17.7399    6.0197    5.6617  O     
24   C        16.9793    5.7452    6.8509  C     
25   O        19.6975    7.9635    5.6674  O     
26   C        20.7760    7.7157    4.7465  C     
27   O        19.2764   10.3620    4.3122  O     
28   C        19.3588   11.2892    5.4062  C     
29   C        15.8172   16.2286    4.9757  C     
30   N        15.0423   17.2553    5.7467  N     
31   C        14.4645   16.7609    7.0342  C     
32   C        13.8520   17.9438    7.8228  C     
33   O        12.8874   18.6548    7.0186  O     
34   C        13.4343   19.1622    5.7848  C     
35   C        14.0348   18.0127    4.9378  C     
36   F        14.9188   13.8388    6.3434  F     
37   H        11.2000   13.3040    1.7909  H     
38   H         9.8954   11.5790    0.7307  H     
39   H        10.6459    9.2710    0.7607  H     
40   H        14.2332    7.0838    2.5441  H     
41   H        16.8943   10.5923    3.3235  H     
42   H        15.5186    6.7681    4.4859  H     
43   H        13.5664   12.1689    5.0159  H     
44   H        14.9766   16.0146    2.4156  H     
45   H        13.7322   14.2732    1.3585  H     
46   H        17.0577    6.5531    7.5832  H     
47   H        17.3792    4.8374    7.3057  H     
48   H        15.9281    5.5707    6.6110  H     
49   H        20.5617    6.8581    4.0981  H     
50   H        21.6771    7.4885    5.3219  H     
51   H        20.9779    8.6002    4.1326  H     
52   H        18.4765   11.9333    5.4487  H     
53   H        20.2353   11.9190    5.2506  H     
54   H        19.4784   10.7675    6.3586  H     
55   H        16.5838   15.7963    5.6281  H     
56   H        16.3836   16.7557    4.1998  H     
57   H        15.7418   17.9508    6.0212  H     
58   H        13.6857   16.0160    6.8513  H     
59   H        15.2450   16.3037    7.6489  H     
60   H        13.3476   17.5640    8.7147  H     
61   H        14.6440   18.6262    8.1456  H     
62   H        12.6312   19.6429    5.2246  H     
63   H        14.1984   19.9178    5.9939  H     
64   H        14.5056   18.4430    4.0502  H     
65   H        13.2240   17.3539    4.6134  H     
@<TRIPOS>BOND
     1    1    2 2
     2    1    4 1
     3    2    3 1
     4    3    6 2
     5    4    5 2
     6    4   17 1
     7    5    6 1
     8    5   10 1
     9    6    7 1
    10    7    8 2
    11    8    9 1
    12    9   10 2
    13    9   11 1
    14   11   12 2
    15   11   16 1
    16   12   13 1
    17   13   14 2
    18   13   27 1
    19   14   15 1
    20   14   25 1
    21   15   16 2
    22   15   23 1
    23   17   18 2
    24   17   22 1
    25   18   19 1
    26   19   20 2
    27   19   36 1
    28   20   21 1
    29   20   29 1
    30   21   22 2
    31   23   24 1
    32   25   26 1
    33   27   28 1
    34   29   30 1
    35   30   31 1
    36   30   35 1
    37   31   32 1
    38   32   33 1
    39   33   34 1
    40   34   35 1
    41    1   37 1
    42    2   38 1
    43    3   39 1
    44    8   40 1
    45   12   41 1
    46   16   42 1
    47   18   43 1
    48   21   44 1
    49   22   45 1
    50   24   46 1
    51   24   47 1
    52   24   48 1
    53   26   49 1
    54   26   50 1
    55   26   51 1
    56   28   52 1
    57   28   53 1
    58   28   54 1
    59   29   55 1
    60   29   56 1
    61   30   57 1
    62   31   58 1
    63   31   59 1
    64   32   60 1
    65   32   61 1
    66   34   62 1
    67   34   63 1
    68   35   64 1
    69   35   65 1
@<TRIPOS>PROPERTY_DATA
  Total_Score	| 12.5097
  Crash		| -1.2603
  Polar		| 2.3399
  FragIndex	| 1
  FragRMSD	| 0.322

