@<TRIPOS>MOLECULE
BindingDB_50315245
 65 69 0 0 0
SMALL
NO_CHARGES


@<TRIPOS>ATOM
1    C        11.5802   12.4213    1.7223  C     
2    C        10.8111   11.4381    1.0708  C     
3    C        11.1970   10.0888    1.1265  C     
4    C        12.7564   12.0757    2.4352  C     
5    C        13.1369   10.7118    2.4793  C     
6    C        12.3539    9.7224    1.8337  C     
7    N        12.7658    8.4280    1.9116  N     
8    C        13.8637    8.0620    2.5603  C     
9    C        14.6689    9.0049    3.1571  C     
10   N        14.2704   10.2721    3.0929  N     
11   C        15.8937    8.7162    3.7875  C     
12   C        16.1547    7.4539    4.3759  C     
13   C        17.3876    7.1718    5.0009  C     
14   C        18.4167    8.1379    4.9883  C     
15   C        18.1792    9.4038    4.4182  C     
16   C        16.9281    9.6869    3.8334  C     
17   C        13.5271   13.0850    3.0711  C     
18   C        13.8661   12.9951    4.4410  C     
19   C        14.6187   14.0080    5.0644  C     
20   C        15.0574   15.1345    4.3263  C     
21   C        14.7359   15.2096    2.9501  C     
22   C        13.9872   14.1951    2.3298  C     
23   O        19.1808   10.3379    4.3581  O     
24   C        19.2798   11.1458    5.5423  C     
25   O        19.6225    7.8590    5.5866  O     
26   C        20.7370    7.7653    4.6726  C     
27   O        17.6336    5.9372    5.5449  O     
28   C        16.8717    5.6349    6.7299  C     
29   C        15.8497   16.2191    4.9731  C     
30   N        15.0795   17.2332    5.7626  N     
31   C        14.0103   17.9445    4.9922  C     
32   C        13.4048   19.0873    5.8478  C     
33   O        12.9409   18.5825    7.1171  O     
34   C        13.9690   17.9244    7.8829  C     
35   C        14.5820   16.7442    7.0846  C     
36   H        11.2674   13.3990    1.6761  H     
37   H         9.9656   11.7066    0.5607  H     
38   H        10.6381    9.3794    0.6466  H     
39   H        14.1050    7.1023    2.5562  H     
40   H        15.4338    6.7289    4.3776  H     
41   H        16.7944   10.6099    3.4094  H     
42   H        13.5562   12.2005    5.0058  H     
43   H        14.8457   13.9249    6.0570  H     
44   H        15.0425   16.0086    2.3899  H     
45   H        13.7870   14.2733    1.3298  H     
46   H        18.3822   11.7519    5.6886  H     
47   H        20.1278   11.8171    5.4274  H     
48   H        19.4500   10.5293    6.4273  H     
49   H        20.5630    7.0032    3.9050  H     
50   H        21.6221    7.4755    5.2474  H     
51   H        20.9387    8.7314    4.1981  H     
52   H        16.9982    6.3977    7.5021  H     
53   H        17.2269    4.6860    7.1283  H     
54   H        15.8132    5.5258    6.4948  H     
55   H        16.6165   15.7657    5.6098  H     
56   H        16.4082   16.7582    4.2036  H     
57   H        15.7643   17.9531    5.9932  H     
58   H        14.4262   18.3805    4.0788  H     
59   H        13.2082   17.2564    4.7119  H     
60   H        14.1469   19.8743    6.0042  H     
61   H        12.5569   19.5237    5.3195  H     
62   H        14.7527   18.6400    8.1476  H     
63   H        13.5296   17.5472    8.8102  H     
64   H        13.8221   15.9651    6.9563  H     
65   H        15.4061   16.3276    7.6720  H     
@<TRIPOS>BOND
     1    1    2 2
     2    1    4 1
     3    2    3 1
     4    3    6 2
     5    4    5 2
     6    4   17 1
     7    5    6 1
     8    5   10 1
     9    6    7 1
    10    7    8 2
    11    8    9 1
    12    9   10 2
    13    9   11 1
    14   11   12 2
    15   11   16 1
    16   12   13 1
    17   13   14 2
    18   13   27 1
    19   14   15 1
    20   14   25 1
    21   15   16 2
    22   15   23 1
    23   17   18 2
    24   17   22 1
    25   18   19 1
    26   19   20 2
    27   20   21 1
    28   20   29 1
    29   21   22 2
    30   23   24 1
    31   25   26 1
    32   27   28 1
    33   29   30 1
    34   30   31 1
    35   30   35 1
    36   31   32 1
    37   32   33 1
    38   33   34 1
    39   34   35 1
    40    1   36 1
    41    2   37 1
    42    3   38 1
    43    8   39 1
    44   12   40 1
    45   16   41 1
    46   18   42 1
    47   19   43 1
    48   21   44 1
    49   22   45 1
    50   24   46 1
    51   24   47 1
    52   24   48 1
    53   26   49 1
    54   26   50 1
    55   26   51 1
    56   28   52 1
    57   28   53 1
    58   28   54 1
    59   29   55 1
    60   29   56 1
    61   30   57 1
    62   31   58 1
    63   31   59 1
    64   32   60 1
    65   32   61 1
    66   34   62 1
    67   34   63 1
    68   35   64 1
    69   35   65 1
@<TRIPOS>PROPERTY_DATA
  Total_Score	| 11.9071
  Crash		| -1.4067
  Polar		| 2.2974
  FragIndex	| 1
  FragRMSD	| 0.330

