@<TRIPOS>MOLECULE
BindingDB_50345243
 46 49 0 0 0
SMALL
NO_CHARGES


@<TRIPOS>ATOM
1    C       -22.6869  -36.2110   -1.8098  C     
2    C       -22.7278  -37.3404   -0.9470  C     
3    C       -22.7088  -37.2002    0.4651  C     
4    C       -22.6359  -34.9285   -1.2018  C     
5    C       -22.5879  -34.8086    0.1874  C     
6    C       -22.6376  -35.9110    1.0217  C     
7    O       -22.6335  -35.5199    2.3330  O     
8    C       -22.5937  -34.1687    2.2285  C     
9    C       -22.5356  -33.7318    0.9707  C     
10   C       -22.6330  -33.3429    3.3213  C     
11   O       -22.6719  -31.9932    3.2109  O     
12   O       -22.6592  -33.8752    4.5586  O     
13   C       -22.7019  -36.2902   -3.2429  C     
14   C       -23.0382  -37.4374   -4.0016  C     
15   N       -23.0786  -37.3571   -5.3569  N     
16   C       -22.8026  -36.2142   -6.0376  C     
17   C       -22.4448  -35.0563   -5.3161  C     
18   N       -22.4080  -35.1640   -3.9668  N     
19   N       -22.1856  -33.8986   -5.9743  N     
20   C       -21.6323  -32.6646   -5.4698  C     
21   C       -21.9334  -31.5352   -6.4977  C     
22   C       -21.4192  -30.1399   -6.0474  C     
23   C       -21.9250  -29.7289   -4.6363  C     
24   C       -21.6035  -30.8352   -3.6025  C     
25   C       -22.0949  -32.2404   -4.0433  C     
26   N       -23.3630  -29.4185   -4.6247  N     
27   H       -22.7643  -38.2842   -1.3261  H     
28   H       -22.7478  -38.0173    1.0738  H     
29   H       -22.6673  -34.0701   -1.7449  H     
30   H       -22.4796  -32.7910    0.6550  H     
31   H       -23.2907  -38.3235   -3.5587  H     
32   H       -22.8552  -36.2104   -7.0564  H     
33   H       -22.3086  -33.9297   -6.9368  H     
34   H       -20.5452  -32.7965   -5.4294  H     
35   H       -21.4649  -31.7847   -7.4547  H     
36   H       -23.0119  -31.4830   -6.6658  H     
37   H       -20.3244  -30.1567   -6.0394  H     
38   H       -21.7268  -29.3874   -6.7779  H     
39   H       -21.4020  -28.8164   -4.3331  H     
40   H       -20.5169  -30.8674   -3.4634  H     
41   H       -22.0505  -30.5738   -2.6351  H     
42   H       -23.1846  -32.2875   -3.9691  H     
43   H       -21.6666  -32.9445   -3.3304  H     
44   H       -23.5480  -28.6393   -5.2602  H     
45   H       -23.6495  -29.1543   -3.6802  H     
46   H       -23.8964  -30.2391   -4.9155  H     
@<TRIPOS>BOND
     1    1    2 2
     2    1    4 1
     3    1   13 1
     4    2    3 1
     5    3    6 2
     6    4    5 2
     7    5    6 1
     8    5    9 1
     9    6    7 1
    10    7    8 1
    11    8    9 2
    12    8   10 1
    13   10   11 1
    14   10   12 2
    15   13   14 2
    16   13   18 1
    17   14   15 1
    18   15   16 2
    19   16   17 1
    20   17   18 2
    21   17   19 1
    22   20   19 1
    23   20   21 1
    24   20   25 1
    25   21   22 1
    26   22   23 1
    27   23   24 1
    28   23   26 1
    29   24   25 1
    30    2   27 1
    31    3   28 1
    32    4   29 1
    33    9   30 1
    34   14   31 1
    35   16   32 1
    36   19   33 1
    37   20   34 1
    38   21   35 1
    39   21   36 1
    40   22   37 1
    41   22   38 1
    42   23   39 1
    43   24   40 1
    44   24   41 1
    45   25   42 1
    46   25   43 1
    47   26   44 1
    48   26   45 1
    49   26   46 1
@<TRIPOS>PROPERTY_DATA
  Total_Score	| 4.1186
  Crash		| -3.3923
  Polar		| 2.6688
  FragIndex	| 1
  FragRMSD	| 0.674

