@<TRIPOS>MOLECULE
BindingDB_28394
 47 49 0 0 0
SMALL
NO_CHARGES


@<TRIPOS>ATOM
1    N       -22.6741  -36.9625   -5.4204  N     
2    C       -22.8776  -35.6998   -5.8687  C     
3    C       -23.0274  -34.6338   -4.9416  C     
4    N       -22.9579  -35.0139   -3.6410  N     
5    C       -22.7601  -36.2538   -3.1274  C     
6    C       -22.6102  -37.2776   -4.0969  C     
7    C       -22.6924  -36.3984   -1.7015  C     
8    C       -22.4943  -35.2579   -0.8741  C     
9    C       -22.8257  -37.6492   -1.0460  C     
10   C       -22.7463  -37.7486    0.3528  C     
11   C       -22.5428  -36.6016    1.1369  C     
12   C       -22.4160  -35.3186    0.5390  C     
13   C       -22.2851  -34.1790    1.3408  C     
14   C       -21.5789  -33.0667    1.0308  C     
15   C       -21.6298  -31.8861    1.7491  C     
16   O       -22.3554  -31.7633    2.8854  O     
17   O       -20.9276  -30.7989    1.3480  O     
18   N       -23.2290  -33.3006   -5.2301  N     
19   C       -23.5677  -32.8502   -6.5635  C     
20   C       -22.2927  -32.4637   -7.3523  C     
21   C       -21.6180  -31.1514   -6.8772  C     
22   N       -21.2797  -31.0151   -5.4284  N     
23   C       -22.4661  -30.9468   -4.5199  C     
24   C       -23.1772  -32.2895   -4.1779  C     
25   C       -20.2007  -31.9349   -4.9671  C     
26   H       -22.8895  -35.5500   -6.8821  H     
27   H       -22.4349  -38.2507   -3.8444  H     
28   H       -22.4432  -34.3304   -1.3054  H     
29   H       -22.9952  -38.5104   -1.5655  H     
30   H       -22.8386  -38.6686    0.7973  H     
31   H       -22.4884  -36.7099    2.1557  H     
32   H       -22.7465  -34.1966    2.2232  H     
33   H       -20.9997  -33.0732    0.2263  H     
34   H       -24.1169  -33.6172   -7.1191  H     
35   H       -24.2501  -31.9936   -6.5254  H     
36   H       -21.5722  -33.2864   -7.3083  H     
37   H       -22.5705  -32.3408   -8.4051  H     
38   H       -20.6994  -31.0274   -7.4585  H     
39   H       -22.2619  -30.3149   -7.1632  H     
40   H       -20.8583  -30.0839   -5.3589  H     
41   H       -22.1381  -30.4848   -3.5845  H     
42   H       -23.2018  -30.2560   -4.9400  H     
43   H       -24.1988  -32.0716   -3.8634  H     
44   H       -22.6629  -32.6609   -3.2915  H     
45   H       -19.9695  -31.7554   -3.9165  H     
46   H       -19.2878  -31.7509   -5.5404  H     
47   H       -20.4833  -32.9818   -5.0819  H     
@<TRIPOS>BOND
     1    1    2 2
     2    1    6 1
     3    2    3 1
     4    3    4 2
     5    3   18 1
     6    4    5 1
     7    5    6 2
     8    5    7 1
     9    7    8 1
    10    7    9 2
    11    8   12 2
    12    9   10 1
    13   10   11 2
    14   11   12 1
    15   12   13 1
    16   13   14 2
    17   14   15 1
    18   15   16 1
    19   15   17 2
    20   18   19 1
    21   18   24 1
    22   19   20 1
    23   20   21 1
    24   21   22 1
    25   22   23 1
    26   22   25 1
    27   23   24 1
    28    2   26 1
    29    6   27 1
    30    8   28 1
    31    9   29 1
    32   10   30 1
    33   11   31 1
    34   13   32 1
    35   14   33 1
    36   19   34 1
    37   19   35 1
    38   20   36 1
    39   20   37 1
    40   21   38 1
    41   21   39 1
    42   22   40 1
    43   23   41 1
    44   23   42 1
    45   24   43 1
    46   24   44 1
    47   25   45 1
    48   25   46 1
    49   25   47 1
@<TRIPOS>PROPERTY_DATA
  Total_Score	| 6.5700
  Crash		| -0.9391
  Polar		| 1.6509
  FragIndex	| 1
  FragRMSD	| 1.245

