@<TRIPOS>MOLECULE
BindingDB_28398
 48 50 0 0 0
SMALL
NO_CHARGES


@<TRIPOS>ATOM
1    C       -22.8964  -36.8250   -5.7501  C     
2    C       -22.9354  -35.4775   -6.1555  C     
3    C       -22.9075  -34.4352   -5.1871  C     
4    N       -22.8419  -34.8631   -3.9006  N     
5    C       -22.7876  -36.1324   -3.4122  C     
6    C       -22.8217  -37.1606   -4.3873  C     
7    C       -22.7148  -36.3098   -1.9934  C     
8    C       -22.9178  -37.5602   -1.3498  C     
9    C       -22.4530  -35.1889   -1.1592  C     
10   C       -22.4137  -35.2723    0.2515  C     
11   C       -22.6390  -36.5337    0.8472  C     
12   C       -22.8738  -37.6715    0.0549  C     
13   C       -22.2646  -34.1363    1.0441  C     
14   C       -21.6093  -33.0110    0.6907  C     
15   C       -21.6561  -31.8353    1.3974  C     
16   O       -22.2747  -31.7266    2.5984  O     
17   O       -20.8998  -30.7754    1.0018  O     
18   N       -22.9094  -33.0644   -5.4170  N     
19   C       -23.0074  -32.4623   -6.7356  C     
20   C       -21.6984  -31.7691   -7.1957  C     
21   N       -21.4810  -30.3716   -6.6802  N     
22   C       -21.3706  -30.2604   -5.1929  C     
23   C       -22.6704  -30.6403   -4.4341  C     
24   C       -22.8369  -32.1704   -4.2548  C     
25   C       -20.3074  -29.7316   -7.3498  C     
26   H       -22.9160  -37.5628   -6.4600  H     
27   H       -22.9671  -35.2858   -7.1555  H     
28   H       -22.7742  -38.1463   -4.1318  H     
29   H       -23.1200  -38.4039   -1.8803  H     
30   H       -22.3282  -34.2632   -1.5865  H     
31   H       -22.6233  -36.6384    1.8608  H     
32   H       -23.0326  -38.5780    0.4996  H     
33   H       -22.6845  -34.1644    1.9566  H     
34   H       -21.0820  -33.0044   -0.1584  H     
35   H       -23.2611  -33.1926   -7.5036  H     
36   H       -23.8445  -31.7606   -6.7564  H     
37   H       -20.8525  -32.4125   -6.9377  H     
38   H       -21.7453  -31.7177   -8.2898  H     
39   H       -22.2789  -29.8049   -6.9667  H     
40   H       -20.5356  -30.8617   -4.8233  H     
41   H       -21.1563  -29.2200   -4.9307  H     
42   H       -22.6277  -30.1904   -3.4358  H     
43   H       -23.5400  -30.2103   -4.9359  H     
44   H       -23.7445  -32.3170   -3.6559  H     
45   H       -21.9865  -32.4824   -3.6370  H     
46   H       -20.2142  -28.6919   -7.0362  H     
47   H       -20.4474  -29.7259   -8.4341  H     
48   H       -19.3781  -30.2557   -7.1180  H     
@<TRIPOS>BOND
     1    1    2 2
     2    1    6 1
     3    2    3 1
     4    3    4 2
     5    3   18 1
     6    4    5 1
     7    5    6 2
     8    5    7 1
     9    7    8 1
    10    7    9 2
    11    8   12 2
    12    9   10 1
    13   10   11 2
    14   10   13 1
    15   11   12 1
    16   13   14 2
    17   14   15 1
    18   15   16 1
    19   15   17 2
    20   18   19 1
    21   18   24 1
    22   19   20 1
    23   20   21 1
    24   21   22 1
    25   21   25 1
    26   22   23 1
    27   23   24 1
    28    1   26 1
    29    2   27 1
    30    6   28 1
    31    8   29 1
    32    9   30 1
    33   11   31 1
    34   12   32 1
    35   13   33 1
    36   14   34 1
    37   19   35 1
    38   19   36 1
    39   20   37 1
    40   20   38 1
    41   21   39 1
    42   22   40 1
    43   22   41 1
    44   23   42 1
    45   23   43 1
    46   24   44 1
    47   24   45 1
    48   25   46 1
    49   25   47 1
    50   25   48 1
@<TRIPOS>PROPERTY_DATA
  Total_Score	| 7.7856
  Crash		| -0.6393
  Polar		| 3.5185
  FragIndex	| 1
  FragRMSD	| 0.774

