@<TRIPOS>MOLECULE
BindingDB_28396
 41 42 0 0 0
SMALL
NO_CHARGES


@<TRIPOS>ATOM
1    N       -22.9639  -37.3882   -5.5355  N     
2    C       -22.9736  -36.1712   -6.1363  C     
3    C       -22.9336  -35.0180   -5.3342  C     
4    N       -22.8800  -35.2132   -3.9926  N     
5    C       -22.8667  -36.4102   -3.3435  C     
6    C       -22.9132  -37.5479   -4.1865  C     
7    N       -22.9198  -33.7775   -5.8797  N     
8    C       -22.7831  -36.4141   -1.9075  C     
9    C       -22.8403  -37.6008   -1.1351  C     
10   C       -22.6067  -35.1944   -1.1978  C     
11   C       -22.4512  -35.1308    0.2104  C     
12   C       -22.5334  -36.3453    0.9310  C     
13   C       -22.7238  -37.5672    0.2652  C     
14   C       -22.2334  -33.9292    0.9010  C     
15   C       -21.4743  -32.9029    0.4669  C     
16   C       -21.2613  -31.7262    1.1581  C     
17   O       -20.3216  -30.8556    0.7270  O     
18   O       -22.0080  -31.3539    2.2213  O     
19   C       -21.5825  -31.7430   -5.4670  C     
20   C       -22.8672  -32.5463   -5.1453  C     
21   C       -21.4714  -30.4190   -4.6690  C     
22   O       -20.9892  -30.6507   -3.3303  O     
23   C       -21.0975  -29.5098   -2.4607  C     
24   H       -23.0082  -36.1071   -7.1553  H     
25   H       -22.9134  -38.4974   -3.8176  H     
26   H       -22.8977  -33.7184   -6.8480  H     
27   H       -22.9551  -38.5140   -1.5749  H     
28   H       -22.6104  -34.3174   -1.7200  H     
29   H       -22.4349  -36.3565    1.9506  H     
30   H       -22.7646  -38.4374    0.8017  H     
31   H       -22.6301  -33.8534    1.8114  H     
32   H       -20.9887  -32.9938   -0.3941  H     
33   H       -20.7088  -32.3653   -5.2581  H     
34   H       -21.5704  -31.4960   -6.5324  H     
35   H       -23.7378  -31.9177   -5.3530  H     
36   H       -22.8770  -32.7891   -4.0809  H     
37   H       -20.7900  -29.7438   -5.1950  H     
38   H       -22.4622  -29.9538   -4.6399  H     
39   H       -20.4767  -28.6856   -2.8173  H     
40   H       -20.7534  -29.7953   -1.4675  H     
41   H       -22.1336  -29.1758   -2.3753  H     
@<TRIPOS>BOND
     1    1    2 2
     2    1    6 1
     3    2    3 1
     4    3    4 2
     5    3    7 1
     6    4    5 1
     7    5    6 2
     8    5    8 1
     9    7   20 1
    10    8    9 1
    11    8   10 2
    12    9   13 2
    13   10   11 1
    14   11   12 2
    15   11   14 1
    16   12   13 1
    17   14   15 2
    18   15   16 1
    19   16   17 1
    20   16   18 2
    21   19   20 1
    22   19   21 1
    23   21   22 1
    24   22   23 1
    25    2   24 1
    26    6   25 1
    27    7   26 1
    28    9   27 1
    29   10   28 1
    30   12   29 1
    31   13   30 1
    32   14   31 1
    33   15   32 1
    34   19   33 1
    35   19   34 1
    36   20   35 1
    37   20   36 1
    38   21   37 1
    39   21   38 1
    40   23   39 1
    41   23   40 1
    42   23   41 1
@<TRIPOS>PROPERTY_DATA
  Total_Score	| 6.4229
  Crash		| -0.2878
  Polar		| 1.9883
  FragIndex	| 1
  FragRMSD	| 0.759

