@<TRIPOS>MOLECULE
BindingDB_50345242
 46 49 0 0 0
SMALL
NO_CHARGES


@<TRIPOS>ATOM
1    C       -22.6519  -36.0980   -1.9657  C     
2    C       -22.6220  -37.2597   -1.1290  C     
3    C       -22.5432  -37.1618    0.2850  C     
4    C       -22.6212  -34.8379   -1.3123  C     
5    C       -22.5506  -34.7626    0.0810  C     
6    C       -22.5106  -35.8917    0.8860  C     
7    O       -22.4837  -35.5508    2.2078  O     
8    C       -22.5465  -34.1997    2.1476  C     
9    C       -22.5529  -33.7124    0.9041  C     
10   C       -22.6320  -33.4039    3.2607  C     
11   O       -22.7717  -32.0611    3.1744  O     
12   O       -22.6289  -33.9511    4.4897  O     
13   C       -22.7228  -36.1221   -3.4010  C     
14   C       -22.7368  -37.2944   -4.1959  C     
15   N       -22.7802  -37.1893   -5.5490  N     
16   C       -22.8190  -35.9973   -6.1934  C     
17   C       -22.8201  -34.8083   -5.4390  C     
18   N       -22.7660  -34.9323   -4.0879  N     
19   N       -22.8421  -33.6214   -6.0954  N     
20   C       -22.8119  -32.2666   -5.6099  C     
21   C       -21.4271  -31.6473   -5.9559  C     
22   C       -21.3320  -30.1466   -5.5593  C     
23   C       -21.6942  -29.8979   -4.0636  C     
24   C       -23.0726  -30.5296   -3.7062  C     
25   C       -23.1128  -32.0343   -4.0986  C     
26   N       -21.6936  -28.4397   -3.8061  N     
27   H       -22.6669  -38.2062   -1.5205  H     
28   H       -22.5262  -37.9976    0.8783  H     
29   H       -22.6658  -33.9612   -1.8405  H     
30   H       -22.5889  -32.7559    0.6288  H     
31   H       -22.7046  -38.2316   -3.7828  H     
32   H       -22.8483  -35.9767   -7.2150  H     
33   H       -22.8238  -33.6843   -7.0683  H     
34   H       -23.5832  -31.7284   -6.1748  H     
35   H       -20.6373  -32.2075   -5.4463  H     
36   H       -21.2508  -31.7287   -7.0318  H     
37   H       -20.3125  -29.7880   -5.7591  H     
38   H       -22.0167  -29.5624   -6.2017  H     
39   H       -20.9140  -30.3471   -3.4306  H     
40   H       -23.2474  -30.4283   -2.6272  H     
41   H       -23.8557  -29.9873   -4.2388  H     
42   H       -24.1089  -32.4203   -3.8680  H     
43   H       -22.3781  -32.5774   -3.4862  H     
44   H       -20.7617  -28.0526   -4.0064  H     
45   H       -21.9280  -28.2217   -2.8269  H     
46   H       -22.3764  -27.9801   -4.4148  H     
@<TRIPOS>BOND
     1    1    2 2
     2    1    4 1
     3    1   13 1
     4    2    3 1
     5    3    6 2
     6    4    5 2
     7    5    6 1
     8    5    9 1
     9    6    7 1
    10    7    8 1
    11    8    9 2
    12    8   10 1
    13   10   11 1
    14   10   12 2
    15   13   14 2
    16   13   18 1
    17   14   15 1
    18   15   16 2
    19   16   17 1
    20   17   18 2
    21   17   19 1
    22   20   19 1
    23   20   21 1
    24   20   25 1
    25   21   22 1
    26   22   23 1
    27   23   24 1
    28   23   26 1
    29   24   25 1
    30    2   27 1
    31    3   28 1
    32    4   29 1
    33    9   30 1
    34   14   31 1
    35   16   32 1
    36   19   33 1
    37   20   34 1
    38   21   35 1
    39   21   36 1
    40   22   37 1
    41   22   38 1
    42   23   39 1
    43   24   40 1
    44   24   41 1
    45   25   42 1
    46   25   43 1
    47   26   44 1
    48   26   45 1
    49   26   46 1
@<TRIPOS>PROPERTY_DATA
  Total_Score	| 5.1433
  Crash		| -3.0292
  Polar		| 2.5957
  FragIndex	| 1
  FragRMSD	| 0.187

