@<TRIPOS>MOLECULE
BindingDB_28395
 43 44 0 0 0
SMALL
NO_CHARGES


@<TRIPOS>ATOM
1    N       -22.6393  -37.3768   -5.4698  N     
2    C       -22.8579  -36.1986   -6.1058  C     
3    C       -23.0158  -35.0280   -5.3441  C     
4    N       -22.9484  -35.1547   -3.9897  N     
5    C       -22.7342  -36.3210   -3.3146  C     
6    C       -22.5708  -37.4781   -4.1160  C     
7    N       -23.1956  -33.8383   -5.9663  N     
8    C       -22.6720  -36.2952   -1.8793  C     
9    C       -22.8173  -37.4650   -1.0880  C     
10   C       -22.4771  -35.0679   -1.1920  C     
11   C       -22.4206  -34.9799    0.2220  C     
12   C       -22.5756  -36.1767    0.9616  C     
13   C       -22.7613  -37.4064    0.3127  C     
14   C       -22.2367  -33.7739    0.9087  C     
15   C       -21.5788  -32.6968    0.4337  C     
16   C       -21.3920  -31.5179    1.1252  C     
17   O       -21.9535  -31.2787    2.3344  O     
18   O       -20.6982  -30.5128    0.5468  O     
19   C       -22.1079  -31.7081   -5.3511  C     
20   C       -23.4015  -32.5662   -5.3474  C     
21   C       -22.3550  -30.2005   -5.0422  C     
22   C       -21.7608  -29.6808   -3.7083  C     
23   N       -22.1013  -28.2612   -3.5376  N     
24   H       -22.9052  -36.1752   -7.1265  H     
25   H       -22.3838  -38.3967   -3.7177  H     
26   H       -23.1649  -33.8526   -6.9389  H     
27   H       -22.9860  -38.3767   -1.5165  H     
28   H       -22.3934  -34.2056   -1.7357  H     
29   H       -22.5376  -36.1668    1.9855  H     
30   H       -22.8608  -38.2637    0.8648  H     
31   H       -22.5742  -33.7306    1.8442  H     
32   H       -21.1541  -32.7498   -0.4615  H     
33   H       -21.3971  -32.1428   -4.6425  H     
34   H       -21.6558  -31.7869   -6.3423  H     
35   H       -24.1730  -32.0631   -5.9337  H     
36   H       -23.7773  -32.6674   -4.3248  H     
37   H       -21.9214  -29.6032   -5.8479  H     
38   H       -23.4255  -29.9813   -5.0265  H     
39   H       -22.1659  -30.2401   -2.8629  H     
40   H       -20.6744  -29.7783   -3.7128  H     
41   H       -21.7359  -27.7184   -4.3250  H     
42   H       -21.7030  -27.9027   -2.6668  H     
43   H       -23.1177  -28.1560   -3.4954  H     
@<TRIPOS>BOND
     1    1    2 2
     2    1    6 1
     3    2    3 1
     4    3    4 2
     5    3    7 1
     6    4    5 1
     7    5    6 2
     8    5    8 1
     9    7   20 1
    10    8    9 1
    11    8   10 2
    12    9   13 2
    13   10   11 1
    14   11   12 2
    15   11   14 1
    16   12   13 1
    17   14   15 2
    18   15   16 1
    19   16   17 1
    20   16   18 2
    21   19   20 1
    22   19   21 1
    23   21   22 1
    24   22   23 1
    25    2   24 1
    26    6   25 1
    27    7   26 1
    28    9   27 1
    29   10   28 1
    30   12   29 1
    31   13   30 1
    32   14   31 1
    33   15   32 1
    34   19   33 1
    35   19   34 1
    36   20   35 1
    37   20   36 1
    38   21   37 1
    39   21   38 1
    40   22   39 1
    41   22   40 1
    42   23   41 1
    43   23   42 1
    44   23   43 1
@<TRIPOS>PROPERTY_DATA
  Total_Score	| 7.4107
  Crash		| -0.7293
  Polar		| 4.3678
  FragIndex	| 1
  FragRMSD	| 0.409

