@<TRIPOS>MOLECULE
BindingDB_28397
 47 49 0 0 0
SMALL
NO_CHARGES


@<TRIPOS>ATOM
1    N       -23.1916  -37.2445   -5.3902  N     
2    C       -22.8775  -36.0804   -6.0123  C     
3    C       -22.5742  -34.9580   -5.2239  C     
4    N       -22.5818  -35.1199   -3.8721  N     
5    C       -22.8734  -36.2761   -3.2069  C     
6    C       -23.2054  -37.3768   -4.0453  C     
7    N       -22.2758  -33.7795   -5.8238  N     
8    C       -22.8064  -36.3209   -1.7709  C     
9    C       -22.8794  -37.5405   -1.0510  C     
10   C       -22.5871  -35.1339   -1.0009  C     
11   C       -22.3624  -35.1716    0.4039  C     
12   C       -22.4128  -36.4292    1.0558  C     
13   C       -22.6853  -37.5931    0.3322  C     
14   C       -22.0596  -34.0497    1.1458  C     
15   C       -21.2435  -33.0592    0.7097  C     
16   C       -21.0667  -31.9052    1.3978  C     
17   O       -22.0380  -31.5092    2.2707  O     
18   O       -20.3940  -30.8917    0.7975  O     
19   C       -21.9417  -32.5651   -5.1388  C     
20   C       -23.0437  -32.1574   -4.1135  C     
21   C       -22.7121  -30.8174   -3.4133  C     
22   C       -22.4750  -29.6734   -4.4359  C     
23   C       -21.3895  -30.0666   -5.4835  C     
24   C       -21.7171  -31.4212   -6.1699  C     
25   N       -22.0951  -28.4390   -3.7383  N     
26   H       -22.8860  -36.0318   -7.0368  H     
27   H       -23.4729  -38.2838   -3.6680  H     
28   H       -22.2667  -33.7630   -6.7889  H     
29   H       -23.0338  -38.4293   -1.5248  H     
30   H       -22.5389  -34.2250   -1.4686  H     
31   H       -22.2464  -36.5018    2.0615  H     
32   H       -22.7230  -38.4941    0.8298  H     
33   H       -22.5670  -33.9032    2.0039  H     
34   H       -20.8990  -33.1042   -0.2220  H     
35   H       -20.9922  -32.7153   -4.5986  H     
36   H       -24.0013  -32.0609   -4.6323  H     
37   H       -23.1530  -32.9268   -3.3499  H     
38   H       -23.5424  -30.5434   -2.7507  H     
39   H       -21.8163  -30.9415   -2.7915  H     
40   H       -23.4088  -29.4701   -4.9657  H     
41   H       -21.3222  -29.2922   -6.2449  H     
42   H       -20.4233  -30.1455   -4.9876  H     
43   H       -20.8854  -31.6908   -6.8312  H     
44   H       -22.6106  -31.3050   -6.7895  H     
45   H       -22.8603  -28.1510   -3.1165  H     
46   H       -21.9140  -27.6966   -4.4168  H     
47   H       -21.2561  -28.6018   -3.1781  H     
@<TRIPOS>BOND
     1    1    2 2
     2    1    6 1
     3    2    3 1
     4    3    4 2
     5    3    7 1
     6    4    5 1
     7    5    6 2
     8    5    8 1
     9   19    7 1
    10    8    9 1
    11    8   10 2
    12    9   13 2
    13   10   11 1
    14   11   12 2
    15   11   14 1
    16   12   13 1
    17   14   15 2
    18   15   16 1
    19   16   17 1
    20   16   18 2
    21   19   20 1
    22   19   24 1
    23   20   21 1
    24   21   22 1
    25   22   23 1
    26   22   25 1
    27   23   24 1
    28    2   26 1
    29    6   27 1
    30    7   28 1
    31    9   29 1
    32   10   30 1
    33   12   31 1
    34   13   32 1
    35   14   33 1
    36   15   34 1
    37   19   35 1
    38   20   36 1
    39   20   37 1
    40   21   38 1
    41   21   39 1
    42   22   40 1
    43   23   41 1
    44   23   42 1
    45   24   43 1
    46   24   44 1
    47   25   45 1
    48   25   46 1
    49   25   47 1
@<TRIPOS>PROPERTY_DATA
  Total_Score	| 8.0369
  Crash		| -0.6176
  Polar		| 3.6429
  FragIndex	| 1
  FragRMSD	| 0.428

