@<TRIPOS>MOLECULE
BindingDB_50345245
 49 52 0 0 0
SMALL
NO_CHARGES


@<TRIPOS>ATOM
1    C       -22.3815  -35.7422   -1.9537  C     
2    C       -22.8056  -36.6259   -0.9229  C     
3    C       -22.7418  -36.2480    0.4396  C     
4    C       -21.8068  -34.5007   -1.5659  C     
5    C       -21.7944  -34.1278   -0.2230  C     
6    C       -22.2635  -34.9634    0.7757  C     
7    O       -22.2122  -34.3426    1.9920  O     
8    C       -21.7404  -33.1149    1.6691  C     
9    C       -21.4526  -32.9822    0.3700  C     
10   C       -21.6434  -32.0858    2.5795  C     
11   O       -22.1118  -32.2375    3.8397  O     
12   O       -21.1088  -30.8874    2.2440  O     
13   C       -22.5967  -35.9970   -3.3416  C     
14   C       -22.7605  -37.2675   -3.9443  C     
15   N       -22.9670  -37.3506   -5.2903  N     
16   C       -23.0555  -36.2509   -6.0868  C     
17   C       -22.9252  -34.9680   -5.5124  C     
18   N       -22.7014  -34.9220   -4.1736  N     
19   N       -23.0164  -33.8469   -6.2713  N     
20   C       -22.8624  -32.4560   -5.8950  C     
21   C       -21.4705  -31.9235   -6.3471  C     
22   C       -21.3471  -30.3864   -6.1350  C     
23   C       -21.6277  -29.9601   -4.6590  C     
24   C       -22.9981  -30.5250   -4.1750  C     
25   C       -23.1050  -32.0534   -4.4083  C     
26   C       -21.5157  -28.4216   -4.4542  C     
27   N       -22.7858  -27.7038   -4.6452  N     
28   H       -23.2048  -37.5371   -1.1479  H     
29   H       -23.0800  -36.8752    1.1747  H     
30   H       -21.4294  -33.8472   -2.2493  H     
31   H       -21.1388  -32.1653   -0.0964  H     
32   H       -22.6914  -38.1306   -3.4036  H     
33   H       -23.2205  -36.3677   -7.0938  H     
34   H       -23.1550  -34.0091   -7.2251  H     
35   H       -23.6262  -31.9363   -6.4898  H     
36   H       -20.6819  -32.4303   -5.7826  H     
37   H       -21.3159  -32.1461   -7.4075  H     
38   H       -20.3363  -30.0759   -6.4151  H     
39   H       -22.0439  -29.8858   -6.8088  H     
40   H       -20.8449  -30.4042   -4.0369  H     
41   H       -23.1159  -30.3294   -3.1067  H     
42   H       -23.8182  -30.0388   -4.7092  H     
43   H       -24.0785  -32.4167   -4.0849  H     
44   H       -22.3528  -32.5126   -3.7712  H     
45   H       -21.1694  -28.2068   -3.4398  H     
46   H       -20.7873  -27.9987   -5.1484  H     
47   H       -23.1898  -27.9332   -5.5544  H     
48   H       -22.6262  -26.6954   -4.5968  H     
49   H       -23.4404  -27.9654   -3.9067  H     
@<TRIPOS>BOND
     1    1    2 2
     2    1    4 1
     3    1   13 1
     4    2    3 1
     5    3    6 2
     6    4    5 2
     7    5    6 1
     8    5    9 1
     9    6    7 1
    10    7    8 1
    11    8    9 2
    12    8   10 1
    13   10   11 1
    14   10   12 2
    15   13   14 2
    16   13   18 1
    17   14   15 1
    18   15   16 2
    19   16   17 1
    20   17   18 2
    21   17   19 1
    22   20   19 1
    23   20   21 1
    24   20   25 1
    25   21   22 1
    26   22   23 1
    27   23   24 1
    28   23   26 1
    29   24   25 1
    30   26   27 1
    31    2   28 1
    32    3   29 1
    33    4   30 1
    34    9   31 1
    35   14   32 1
    36   16   33 1
    37   19   34 1
    38   20   35 1
    39   21   36 1
    40   21   37 1
    41   22   38 1
    42   22   39 1
    43   23   40 1
    44   24   41 1
    45   24   42 1
    46   25   43 1
    47   25   44 1
    48   26   45 1
    49   26   46 1
    50   27   47 1
    51   27   48 1
    52   27   49 1
@<TRIPOS>PROPERTY_DATA
  Total_Score	| 5.4837
  Crash		| -0.8645
  Polar		| 1.4833
  FragIndex	| 1
  FragRMSD	| 0.941

