@<TRIPOS>MOLECULE
BindingDB_50383272
 50 53 0 0 0
SMALL
NO_CHARGES


@<TRIPOS>ATOM
1    C       -22.6788  -37.9951    0.4012  C     
2    C       -22.7856  -37.9164   -0.9965  C     
3    C       -22.7980  -36.6659   -1.6705  C     
4    C       -22.7250  -35.4973   -0.8572  C     
5    C       -22.5788  -35.5487    0.5496  C     
6    C       -22.5747  -36.8242    1.1680  C     
7    C       -22.8411  -36.5537   -3.1052  C     
8    C       -23.0986  -37.6106   -4.0152  C     
9    N       -23.0635  -37.3768   -5.3532  N     
10   C       -22.7957  -36.1590   -5.8834  C     
11   C       -22.5463  -35.0892   -5.0137  C     
12   N       -22.5806  -35.3478   -3.6820  N     
13   N       -22.2811  -33.8542   -5.4993  N     
14   C       -22.5067  -34.4152    1.3656  C     
15   C       -21.9243  -33.2189    1.1187  C     
16   C       -21.9905  -32.6816   -4.7216  C     
17   C       -23.3123  -32.0380   -4.2148  C     
18   C       -23.0640  -30.7152   -3.4394  C     
19   C       -22.2398  -29.7073   -4.2846  C     
20   C       -20.9144  -30.3490   -4.7705  C     
21   C       -21.1581  -31.6671   -5.5531  C     
22   N       -21.9593  -28.4855   -3.5104  N     
23   S       -21.0167  -32.8211   -0.2818  S     
24   C       -20.6582  -31.3270    0.4463  C     
25   N       -21.2031  -31.1701    1.6232  N     
26   C       -21.9048  -32.2013    2.0122  C     
27   O       -22.4913  -32.1702    3.0853  O     
28   O       -19.9734  -30.4705   -0.0935  O     
29   H       -22.6615  -38.9070    0.8656  H     
30   H       -22.8337  -38.7955   -1.5160  H     
31   H       -22.8128  -34.5794   -1.3016  H     
32   H       -22.4814  -36.9145    2.1833  H     
33   H       -23.3115  -38.5567   -3.6998  H     
34   H       -22.7768  -36.0373   -6.8967  H     
35   H       -22.2979  -33.7472   -6.4661  H     
36   H       -22.8998  -34.5307    2.2738  H     
37   H       -21.3893  -32.9626   -3.8477  H     
38   H       -23.9707  -31.8415   -5.0672  H     
39   H       -23.8248  -32.7433   -3.5556  H     
40   H       -24.0286  -30.2753   -3.1806  H     
41   H       -22.5349  -30.9336   -2.5085  H     
42   H       -22.8333  -29.4058   -5.1539  H     
43   H       -20.3818  -29.6456   -5.4120  H     
44   H       -20.2890  -30.5616   -3.9017  H     
45   H       -20.1939  -32.1205   -5.7973  H     
46   H       -21.6724  -31.4495   -6.4950  H     
47   H       -22.8318  -28.1305   -3.1108  H     
48   H       -21.5542  -27.7745   -4.1251  H     
49   H       -21.3023  -28.6877   -2.7530  H     
50   H       -21.1069  -30.3687    2.1635  H     
@<TRIPOS>BOND
     1    1    2 2
     2    1    6 1
     3    2    3 1
     4    3    4 2
     5    3    7 1
     6    4    5 1
     7    5    6 2
     8    5   14 1
     9    7    8 2
    10    7   12 1
    11    8    9 1
    12    9   10 2
    13   10   11 1
    14   11   12 2
    15   11   13 1
    16   16   13 1
    17   14   15 2
    18   15   23 1
    19   15   26 1
    20   16   17 1
    21   16   21 1
    22   17   18 1
    23   18   19 1
    24   19   20 1
    25   19   22 1
    26   20   21 1
    27   23   24 1
    28   24   25 1
    29   24   28 2
    30   25   26 1
    31   26   27 2
    32    1   29 1
    33    2   30 1
    34    4   31 1
    35    6   32 1
    36    8   33 1
    37   10   34 1
    38   13   35 1
    39   14   36 1
    40   16   37 1
    41   17   38 1
    42   17   39 1
    43   18   40 1
    44   18   41 1
    45   19   42 1
    46   20   43 1
    47   20   44 1
    48   21   45 1
    49   21   46 1
    50   22   47 1
    51   22   48 1
    52   22   49 1
    53   25   50 1
@<TRIPOS>PROPERTY_DATA
  Total_Score	| 8.0185
  Crash		| -2.0687
  Polar		| 2.7563
  FragIndex	| 1
  FragRMSD	| 0.691

