@<TRIPOS>MOLECULE
BindingDB_50297417
 51 53 0 0 0
SMALL
NO_CHARGES


@<TRIPOS>ATOM
1    C        73.8860  -10.0433   66.2761  C     
2    C        74.8448  -11.0203   66.9192  C     
3    C        72.6576   -9.6183   67.1824  C     
4    C        74.6294   -8.9545   65.5213  C     
5    C        74.6071  -12.4159   66.8290  C     
6    C        75.4074  -13.3482   67.5111  C     
7    C        76.4846  -12.9090   68.2981  C     
8    C        76.7701  -11.5361   68.3727  C     
9    C        75.9731  -10.6145   67.6772  C     
10   C        74.6736   -9.0148   64.1019  C     
11   C        75.4703   -8.1446   63.3359  C     
12   C        76.2537   -7.1719   63.9742  C     
13   C        76.1946   -7.0518   65.3726  C     
14   C        75.3765   -7.9113   66.1286  C     
15   C        72.4485  -10.3154   68.5623  C     
16   N        73.3818  -10.0863   69.6339  N     
17   C        74.3329   -9.1486   69.7284  C     
18   C        75.0865   -8.9396   70.8963  C     
19   C        74.7462   -9.5480   72.1313  C     
20   C        75.4576   -9.2393   73.2954  C     
21   C        76.5167   -8.3102   73.2603  C     
22   C        76.8808   -7.7225   72.0372  C     
23   C        76.1800   -8.0369   70.8735  C     
24   O        74.5760   -8.4154   68.7842  O     
25   S        77.3905   -7.8880   74.6981  S     
26   C        78.6262   -9.1485   75.0534  C     
27   O        78.1323   -6.5080   74.4367  O     
28   O        76.4204   -7.6833   75.9390  O     
29   F        77.2147  -13.7721   68.9471  F     
30   F        77.0165   -6.3823   63.2857  F     
31   H        73.3804  -10.6003   65.4785  H     
32   H        72.6681   -8.5471   67.4075  H     
33   H        71.7344   -9.7729   66.6130  H     
34   H        73.8231  -12.7698   66.2800  H     
35   H        75.1872  -14.3468   67.4488  H     
36   H        77.5567  -11.2005   68.9290  H     
37   H        76.2191   -9.6293   67.7539  H     
38   H        74.1367   -9.7164   63.6064  H     
39   H        75.5006   -8.2379   62.3181  H     
40   H        76.7512   -6.3508   65.8562  H     
41   H        75.3061   -7.7359   67.1306  H     
42   H        71.4808   -9.9967   68.9520  H     
43   H        72.3866  -11.3928   68.4069  H     
44   H        73.2795  -10.6796   70.3867  H     
45   H        73.9691  -10.2014   72.1989  H     
46   H        75.1887   -9.6855   74.1772  H     
47   H        77.6518   -7.0488   71.9923  H     
48   H        76.4801   -7.5860   70.0037  H     
49   H        78.1458  -10.1182   75.1894  H     
50   H        79.1594   -8.8822   75.9670  H     
51   H        79.3374   -9.2139   74.2312  H     
@<TRIPOS>BOND
     1    1    2 1
     2    1    3 1
     3    1    4 1
     4    2    5 2
     5    2    9 1
     6    3   15 1
     7    4   10 2
     8    4   14 1
     9    5    6 1
    10    6    7 2
    11    7    8 1
    12    7   29 1
    13    8    9 2
    14   10   11 1
    15   11   12 2
    16   12   13 1
    17   12   30 1
    18   13   14 2
    19   15   16 1
    20   16   17 am
    21   17   18 1
    22   17   24 2
    23   18   19 2
    24   18   23 1
    25   19   20 1
    26   20   21 2
    27   21   22 1
    28   21   25 1
    29   22   23 2
    30   25   26 1
    31   25   27 2
    32   25   28 2
    33    1   31 1
    34    3   32 1
    35    3   33 1
    36    5   34 1
    37    6   35 1
    38    8   36 1
    39    9   37 1
    40   10   38 1
    41   11   39 1
    42   13   40 1
    43   14   41 1
    44   15   42 1
    45   15   43 1
    46   16   44 1
    47   19   45 1
    48   20   46 1
    49   22   47 1
    50   23   48 1
    51   26   49 1
    52   26   50 1
    53   26   51 1
@<TRIPOS>PROPERTY_DATA
  Total_Score	| 6.6768
  Crash		| -4.6540
  Polar		| 1.0973
  FragIndex	| 1
  FragRMSD	| 0.903

