@<TRIPOS>MOLECULE
BindingDB_50297402
 45 47 0 0 0
SMALL
NO_CHARGES


@<TRIPOS>ATOM
1    C        74.9371  -10.0305   68.6121  C     
2    C        74.9544  -11.5300   68.7330  C     
3    C        73.7282   -9.4098   67.8471  C     
4    C        75.1509   -9.3994   69.9567  C     
5    C        73.7856  -12.2838   69.0187  C     
6    C        73.8337  -13.6902   69.1324  C     
7    C        75.0541  -14.3690   68.9718  C     
8    C        76.2254  -13.6425   68.7054  C     
9    C        76.1784  -12.2382   68.5983  C     
10   C        74.3847   -9.7885   71.0840  C     
11   C        74.6466   -9.2548   72.3599  C     
12   C        75.6721   -8.3059   72.5275  C     
13   C        76.4119   -7.8691   71.4117  C     
14   C        76.1448   -8.4059   70.1394  C     
15   C        73.4954  -10.0415   66.4424  C     
16   N        73.6837   -9.1008   65.3738  N     
17   C        74.6491   -9.0778   64.4577  C     
18   C        74.6160   -8.2055   63.3580  C     
19   O        75.6074   -9.8318   64.5966  O     
20   C        73.6118   -7.2177   63.1998  C     
21   C        73.5603   -6.3994   62.0584  C     
22   C        74.5262   -6.5676   61.0522  C     
23   N        75.4959   -7.4993   61.2141  N     
24   C        75.5755   -8.2984   62.3100  C     
25   F        75.0950  -15.6684   69.0841  F     
26   F        75.9166   -7.8093   73.7123  F     
27   O        74.5100   -5.8261   59.9135  O     
28   H        75.7925   -9.7671   67.9785  H     
29   H        72.8211   -9.4997   68.4552  H     
30   H        73.9101   -8.3300   67.7379  H     
31   H        72.8853  -11.8218   69.1409  H     
32   H        72.9748  -14.2082   69.3444  H     
33   H        77.1129  -14.1263   68.6040  H     
34   H        77.0478  -11.7375   68.4155  H     
35   H        73.6366  -10.4777   70.9879  H     
36   H        74.0877   -9.5544   73.1619  H     
37   H        77.1418   -7.1578   71.5243  H     
38   H        76.6936   -8.0702   69.3466  H     
39   H        74.1102  -10.9334   66.3113  H     
40   H        72.4593  -10.3795   66.3850  H     
41   H        73.0132   -8.4180   65.3208  H     
42   H        72.8960   -7.0750   63.9123  H     
43   H        72.8303   -5.6897   61.9605  H     
44   H        76.3357   -8.9771   62.3409  H     
45   H        73.5811   -5.5447   59.7804  H     
@<TRIPOS>BOND
     1    1    2 1
     2    1    3 1
     3    1    4 1
     4    2    5 2
     5    2    9 1
     6    3   15 1
     7    4   10 2
     8    4   14 1
     9    5    6 1
    10    6    7 2
    11    7    8 1
    12    7   25 1
    13    8    9 2
    14   10   11 1
    15   11   12 2
    16   12   13 1
    17   12   26 1
    18   13   14 2
    19   15   16 1
    20   16   17 am
    21   17   18 1
    22   17   19 2
    23   18   20 2
    24   18   24 1
    25   20   21 1
    26   21   22 2
    27   22   23 1
    28   22   27 1
    29   23   24 2
    30    1   28 1
    31    3   29 1
    32    3   30 1
    33    5   31 1
    34    6   32 1
    35    8   33 1
    36    9   34 1
    37   10   35 1
    38   11   36 1
    39   13   37 1
    40   14   38 1
    41   15   39 1
    42   15   40 1
    43   16   41 1
    44   20   42 1
    45   21   43 1
    46   24   44 1
    47   27   45 1
@<TRIPOS>PROPERTY_DATA
  Total_Score	| 10.5615
  Crash		| -1.2559
  Polar		| 2.6832
  FragIndex	| 1
  FragRMSD	| 0.501

