@<TRIPOS>MOLECULE
BindingDB_50297413
 44 46 0 0 0
SMALL
NO_CHARGES


@<TRIPOS>ATOM
1    C        75.9818   -7.6408   61.6259  C     
2    C        74.9206   -6.8039   61.2493  C     
3    N        73.8142   -6.7328   62.0283  N     
4    C        73.6775   -7.4515   63.1733  C     
5    C        74.7008   -8.3319   63.6195  C     
6    C        75.8690   -8.3918   62.8087  C     
7    C        74.5764   -9.1100   64.7838  C     
8    N        73.4136   -9.2478   65.4106  N     
9    O        75.5391   -9.7401   65.2021  O     
10   C        73.1096  -10.0584   66.5567  C     
11   C        73.5345   -9.4678   67.9416  C     
12   C        74.8201  -10.0904   68.5765  C     
13   C        75.1442   -9.4356   69.8891  C     
14   C        74.8463  -11.5898   68.7053  C     
15   C        76.0785  -12.2757   68.5915  C     
16   C        76.1552  -13.6776   68.7045  C     
17   C        74.9969  -14.4313   68.9519  C     
18   C        73.7663  -13.7718   69.0947  C     
19   C        73.6931  -12.3693   68.9727  C     
20   C        76.1772   -8.4699   69.9808  C     
21   C        76.4984   -7.8686   71.2123  C     
22   C        75.7881   -8.2199   72.3752  C     
23   C        74.7464   -9.1583   72.2995  C     
24   C        74.4264   -9.7561   71.0683  C     
25   H        76.8249   -7.6975   61.0521  H     
26   H        74.9786   -6.2396   60.3984  H     
27   H        72.8101   -7.3295   63.6978  H     
28   H        76.6516   -8.9970   63.0699  H     
29   H        72.6506   -8.8154   64.9987  H     
30   H        72.0221  -10.1523   66.5625  H     
31   H        73.5067  -11.0643   66.4073  H     
32   H        73.6816   -8.3871   67.8284  H     
33   H        72.7047   -9.5869   68.6409  H     
34   H        75.6056   -9.8380   67.8604  H     
35   H        76.9454  -11.7580   68.4212  H     
36   H        77.0605  -14.1491   68.6094  H     
37   H        75.0514  -15.4485   69.0385  H     
38   H        72.9186  -14.3149   69.2930  H     
39   H        72.7761  -11.9296   69.0856  H     
40   H        76.7044   -8.1925   69.1484  H     
41   H        77.2472   -7.1752   71.2635  H     
42   H        76.0157   -7.7784   73.2670  H     
43   H        74.2186   -9.4066   73.1386  H     
44   H        73.6699  -10.4410   71.0436  H     
@<TRIPOS>BOND
     1    1    2 2
     2    1    6 1
     3    2    3 1
     4    3    4 2
     5    4    5 1
     6    5    6 2
     7    5    7 1
     8    7    8 am
     9    7    9 2
    10    8   10 1
    11   10   11 1
    12   11   12 1
    13   12   13 1
    14   12   14 1
    15   13   20 2
    16   13   24 1
    17   14   15 2
    18   14   19 1
    19   15   16 1
    20   16   17 2
    21   17   18 1
    22   18   19 2
    23   20   21 1
    24   21   22 2
    25   22   23 1
    26   23   24 2
    27    1   25 1
    28    2   26 1
    29    4   27 1
    30    6   28 1
    31    8   29 1
    32   10   30 1
    33   10   31 1
    34   11   32 1
    35   11   33 1
    36   12   34 1
    37   15   35 1
    38   16   36 1
    39   17   37 1
    40   18   38 1
    41   19   39 1
    42   20   40 1
    43   21   41 1
    44   22   42 1
    45   23   43 1
    46   24   44 1
@<TRIPOS>PROPERTY_DATA
  Total_Score	| 10.0615
  Crash		| -0.8234
  Polar		| 1.9662
  FragIndex	| 1
  FragRMSD	| 0.474

