@<TRIPOS>MOLECULE
BindingDB_50297401
 57 59 0 0 0
SMALL
NO_CHARGES


@<TRIPOS>ATOM
1    C        74.9311  -10.1151   68.6187  C     
2    C        74.9292  -11.6251   68.6811  C     
3    C        73.6412   -9.4442   68.0405  C     
4    C        75.3098   -9.4952   69.9393  C     
5    C        76.1223  -12.3625   68.4505  C     
6    C        76.1328  -13.7725   68.4828  C     
7    C        74.9468  -14.4770   68.7471  C     
8    C        73.7551  -13.7716   68.9904  C     
9    C        73.7533  -12.3651   68.9661  C     
10   C        74.7260   -9.9152   71.1627  C     
11   C        75.1321   -9.3663   72.3974  C     
12   C        76.1160   -8.3579   72.4418  C     
13   C        76.6399   -7.8683   71.2276  C     
14   C        76.2433   -8.4312   69.9997  C     
15   C        73.0794  -10.0095   66.6990  C     
16   N        73.4224   -9.2685   65.5205  N     
17   C        74.5711   -9.2523   64.8525  C     
18   C        74.7525   -8.4514   63.7111  C     
19   O        75.4752   -9.9856   65.2349  O     
20   C        75.9314   -8.5424   62.9232  C     
21   C        76.1309   -7.7261   61.7936  C     
22   C        75.1476   -6.7925   61.4083  C     
23   C        73.9701   -6.6868   62.1710  C     
24   C        73.7823   -7.4966   63.3035  C     
25   F        74.9473  -15.7833   68.7711  F     
26   S        76.6798   -7.7432   73.9785  S     
27   C        77.3326   -9.0589   75.0263  C     
28   O        77.8308   -6.6574   73.8202  O     
29   O        75.5037   -7.0113   74.7540  O     
30   S        75.3851   -5.7369   60.0419  S     
31   C        75.8381   -4.0938   60.6328  C     
32   O        76.4990   -6.2678   59.0378  O     
33   O        74.0108   -5.5835   59.2561  O     
34   H        75.7085   -9.8504   67.8983  H     
35   H        72.8518   -9.5154   68.7946  H     
36   H        73.8249   -8.3742   67.9114  H     
37   H        77.0036  -11.8754   68.2535  H     
38   H        77.0034  -14.2801   68.3101  H     
39   H        72.8891  -14.2757   69.1862  H     
40   H        72.8722  -11.8838   69.1519  H     
41   H        74.0149  -10.6485   71.1760  H     
42   H        74.7112   -9.7181   73.2623  H     
43   H        77.3171   -7.1021   71.2279  H     
44   H        76.6537   -8.0617   69.1390  H     
45   H        73.3352  -11.0618   66.5664  H     
46   H        71.9894   -9.9560   66.7520  H     
47   H        72.7010   -8.7534   65.1333  H     
48   H        76.6720   -9.2055   63.1618  H     
49   H        76.9991   -7.8135   61.2595  H     
50   H        73.2459   -6.0099   61.9158  H     
51   H        72.9176   -7.3656   63.8302  H     
52   H        76.5605   -9.8102   75.1938  H     
53   H        77.6419   -8.6428   75.9872  H     
54   H        78.1933   -9.5248   74.5430  H     
55   H        75.0243   -3.6916   61.2363  H     
56   H        76.0142   -3.4351   59.7831  H     
57   H        76.7428   -4.1542   61.2377  H     
@<TRIPOS>BOND
     1    1    2 1
     2    1    3 1
     3    1    4 1
     4    2    5 2
     5    2    9 1
     6    3   15 1
     7    4   10 2
     8    4   14 1
     9    5    6 1
    10    6    7 2
    11    7    8 1
    12    7   25 1
    13    8    9 2
    14   10   11 1
    15   11   12 2
    16   12   13 1
    17   12   26 1
    18   13   14 2
    19   15   16 1
    20   16   17 am
    21   17   18 1
    22   17   19 2
    23   18   20 2
    24   18   24 1
    25   20   21 1
    26   21   22 2
    27   22   23 1
    28   22   30 1
    29   23   24 2
    30   26   27 1
    31   26   28 2
    32   26   29 2
    33   30   31 1
    34   30   32 2
    35   30   33 2
    36    1   34 1
    37    3   35 1
    38    3   36 1
    39    5   37 1
    40    6   38 1
    41    8   39 1
    42    9   40 1
    43   10   41 1
    44   11   42 1
    45   13   43 1
    46   14   44 1
    47   15   45 1
    48   15   46 1
    49   16   47 1
    50   20   48 1
    51   21   49 1
    52   23   50 1
    53   24   51 1
    54   27   52 1
    55   27   53 1
    56   27   54 1
    57   31   55 1
    58   31   56 1
    59   31   57 1
@<TRIPOS>PROPERTY_DATA
  Total_Score	| 12.6756
  Crash		| -1.2893
  Polar		| 3.9289
  FragIndex	| 1
  FragRMSD	| 0.757

