@<TRIPOS>MOLECULE
BindingDB_50297396
 45 47 0 0 0
SMALL
NO_CHARGES


@<TRIPOS>ATOM
1    C        74.9096  -10.0519   68.5024  C     
2    C        74.9272  -11.5538   68.6176  C     
3    C        73.6604   -9.4145   67.8087  C     
4    C        75.1690   -9.3953   69.8345  C     
5    C        73.7466  -12.3035   68.8464  C     
6    C        73.7795  -13.7072   68.9349  C     
7    C        75.0007  -14.3949   68.8134  C     
8    C        76.1897  -13.6720   68.6108  C     
9    C        76.1517  -12.2667   68.5184  C     
10   C        76.1715   -8.3984   69.9673  C     
11   C        76.4507   -7.8058   71.2148  C     
12   C        75.7376   -8.2062   72.3579  C     
13   C        74.7089   -9.1554   72.2435  C     
14   C        74.4205   -9.7342   70.9929  C     
15   C        73.2082  -10.0519   66.4546  C     
16   C        74.6844   -8.3036   63.4594  C     
17   C        73.6672   -7.3652   63.1219  C     
18   C        73.7819   -6.5347   61.9873  C     
19   C        74.9099   -6.6270   61.1584  C     
20   C        75.9277   -7.5432   61.4626  C     
21   C        75.8145   -8.3715   62.5981  C     
22   O        75.5741   -9.7272   64.9937  O     
23   C        74.5870   -9.1127   64.6039  C     
24   N        73.4558   -9.2476   65.2894  N     
25   H        75.7335   -9.7926   67.8240  H     
26   H        72.8194   -9.4544   68.5106  H     
27   H        73.8601   -8.3511   67.6393  H     
28   H        72.8468  -11.8342   68.9519  H     
29   H        72.9151  -14.2321   69.0896  H     
30   H        75.0209  -15.4182   68.8630  H     
31   H        77.0794  -14.1731   68.5225  H     
32   H        77.0334  -11.7692   68.3738  H     
33   H        76.7039   -8.0910   69.1520  H     
34   H        77.1740   -7.0900   71.2910  H     
35   H        75.9454   -7.7912   73.2666  H     
36   H        74.1689   -9.4307   73.0668  H     
37   H        73.6641  -10.4205   70.9352  H     
38   H        73.6175  -11.0558   66.3241  H     
39   H        72.1262  -10.1724   66.5047  H     
40   H        72.8325   -7.2606   63.7032  H     
41   H        73.0420   -5.8638   61.7677  H     
42   H        74.9905   -6.0246   60.3353  H     
43   H        76.7496   -7.6138   60.8617  H     
44   H        76.5738   -9.0270   62.7842  H     
45   H        72.6770   -8.8106   64.9162  H     
@<TRIPOS>BOND
     1    1    2 1
     2    1    3 1
     3    1    4 1
     4    2    5 2
     5    2    9 1
     6    3   15 1
     7    4   10 2
     8    4   14 1
     9    5    6 1
    10    6    7 2
    11    7    8 1
    12    8    9 2
    13   10   11 1
    14   11   12 2
    15   12   13 1
    16   13   14 2
    17   15   24 1
    18   16   17 2
    19   16   21 1
    20   16   23 1
    21   17   18 1
    22   18   19 2
    23   19   20 1
    24   20   21 2
    25   22   23 2
    26   23   24 am
    27    1   25 1
    28    3   26 1
    29    3   27 1
    30    5   28 1
    31    6   29 1
    32    7   30 1
    33    8   31 1
    34    9   32 1
    35   10   33 1
    36   11   34 1
    37   12   35 1
    38   13   36 1
    39   14   37 1
    40   15   38 1
    41   15   39 1
    42   17   40 1
    43   18   41 1
    44   19   42 1
    45   20   43 1
    46   21   44 1
    47   24   45 1
@<TRIPOS>PROPERTY_DATA
  Total_Score	| 10.4386
  Crash		| -0.8622
  Polar		| 2.1557
  FragIndex	| 1
  FragRMSD	| 0.557

