@<TRIPOS>MOLECULE
BindingDB_50297414
 57 59 0 0 0
SMALL
NO_CHARGES


@<TRIPOS>ATOM
1    C        74.9718  -10.0763   68.6059  C     
2    C        74.9663  -11.5864   68.6795  C     
3    C        73.7038   -9.3905   67.9834  C     
4    C        75.3146   -9.4570   69.9385  C     
5    C        73.7900  -12.3207   68.9699  C     
6    C        73.8027  -13.7292   69.0230  C     
7    C        74.9964  -14.4347   68.7826  C     
8    C        76.1799  -13.7274   68.5128  C     
9    C        76.1615  -12.3167   68.4707  C     
10   C        76.2581   -8.4028   70.0150  C     
11   C        76.6358   -7.8384   71.2478  C     
12   C        76.0875   -8.3177   72.4565  C     
13   C        75.1029   -9.3244   72.3945  C     
14   C        74.7212   -9.8766   71.1566  C     
15   C        73.1997   -9.9690   66.6184  C     
16   N        73.4693   -9.1831   65.4496  N     
17   C        74.5923   -9.1194   64.7328  C     
18   C        74.6732   -8.3646   63.5488  C     
19   O        75.5668   -9.7622   65.1025  O     
20   C        73.6969   -7.3902   63.2062  C     
21   C        73.7959   -6.6384   62.0228  C     
22   C        74.8958   -6.8419   61.1685  C     
23   N        75.8157   -7.7846   61.4919  N     
24   C        75.7427   -8.5303   62.6264  C     
25   F        74.9928  -15.7415   68.8063  F     
26   S        76.6375   -7.7073   73.9998  S     
27   C        77.2297   -9.0261   75.0776  C     
28   O        77.8039   -6.6403   73.8381  O     
29   O        75.4599   -6.9410   74.7441  O     
30   O        75.0205   -6.1049   60.0170  O     
31   C        76.1408   -5.1877   59.9764  C     
32   C        75.9890   -3.9453   60.8918  C     
33   F        76.9984   -3.0472   60.6510  F     
34   F        74.7922   -3.3201   60.6496  F     
35   F        76.0488   -4.2935   62.2177  F     
36   H        75.7701   -9.8226   67.8974  H     
37   H        72.8978   -9.4568   68.7174  H     
38   H        73.8976   -8.3200   67.8461  H     
39   H        72.9050  -11.8404   69.1479  H     
40   H        72.9436  -14.2434   69.2344  H     
41   H        77.0556  -14.2326   68.3375  H     
42   H        77.0384  -11.8303   68.2749  H     
43   H        76.6916   -8.0411   69.1612  H     
44   H        77.3307   -7.0852   71.2619  H     
45   H        74.6755   -9.6782   73.2540  H     
46   H        74.0215  -10.6234   71.1628  H     
47   H        73.5539  -10.9904   66.4591  H     
48   H        72.1112  -10.0320   66.6864  H     
49   H        72.7068   -8.7133   65.0836  H     
50   H        72.9061   -7.1997   63.8223  H     
51   H        73.0849   -5.9387   61.7964  H     
52   H        76.4879   -9.2067   62.7946  H     
53   H        76.4454   -9.7679   75.2339  H     
54   H        77.5191   -8.6047   76.0392  H     
55   H        78.0946   -9.5087   74.6197  H     
56   H        77.0783   -5.7030   60.1974  H     
57   H        76.2082   -4.8348   58.9422  H     
@<TRIPOS>BOND
     1    1    2 1
     2    1    3 1
     3    1    4 1
     4    2    5 2
     5    2    9 1
     6    3   15 1
     7    4   10 2
     8    4   14 1
     9    5    6 1
    10    6    7 2
    11    7    8 1
    12    7   25 1
    13    8    9 2
    14   10   11 1
    15   11   12 2
    16   12   13 1
    17   12   26 1
    18   13   14 2
    19   15   16 1
    20   16   17 am
    21   17   18 1
    22   17   19 2
    23   18   20 2
    24   18   24 1
    25   20   21 1
    26   21   22 2
    27   22   23 1
    28   22   30 1
    29   23   24 2
    30   26   27 1
    31   26   28 2
    32   26   29 2
    33   30   31 1
    34   31   32 1
    35   32   33 1
    36   32   34 1
    37   32   35 1
    38    1   36 1
    39    3   37 1
    40    3   38 1
    41    5   39 1
    42    6   40 1
    43    8   41 1
    44    9   42 1
    45   10   43 1
    46   11   44 1
    47   13   45 1
    48   14   46 1
    49   15   47 1
    50   15   48 1
    51   16   49 1
    52   20   50 1
    53   21   51 1
    54   24   52 1
    55   27   53 1
    56   27   54 1
    57   27   55 1
    58   31   56 1
    59   31   57 1
@<TRIPOS>PROPERTY_DATA
  Total_Score	| 12.4815
  Crash		| -1.1590
  Polar		| 4.0111
  FragIndex	| 1
  FragRMSD	| 0.590

