@<TRIPOS>MOLECULE
BindingDB_50297398
 44 46 0 0 0
SMALL
NO_CHARGES


@<TRIPOS>ATOM
1    C        74.9576  -10.0425   68.5436  C     
2    C        74.9026  -11.5466   68.6153  C     
3    C        73.8180   -9.3035   67.7680  C     
4    C        75.1822   -9.4223   69.8924  C     
5    C        76.0884  -12.3181   68.4990  C     
6    C        76.0551  -13.7289   68.5304  C     
7    C        74.8281  -14.3967   68.6944  C     
8    C        73.6432  -13.6559   68.8325  C     
9    C        73.6805  -12.2463   68.7972  C     
10   C        76.1521   -8.4020   70.0419  C     
11   C        76.4303   -7.8325   71.2977  C     
12   C        75.7293   -8.2675   72.4356  C     
13   C        74.7271   -9.2476   72.3065  C     
14   C        74.4563   -9.8109   71.0466  C     
15   C        73.3642   -9.9649   66.4249  C     
16   N        73.5170   -9.1371   65.2549  N     
17   C        74.5837   -9.0521   64.4614  C     
18   C        74.6085   -8.2393   63.3160  C     
19   O        75.5764   -9.7211   64.7375  O     
20   C        73.6379   -7.2261   63.0923  C     
21   C        73.6843   -6.4084   61.9475  C     
22   C        74.7110   -6.6049   61.0117  C     
23   N        75.6374   -7.5697   61.2281  N     
24   C        75.6182   -8.3718   62.3243  C     
25   F        74.7728  -15.7015   68.7004  F     
26   F        75.9835   -7.7631   73.6073  F     
27   H        75.8421   -9.8243   67.9330  H     
28   H        72.9453   -9.2110   68.4243  H     
29   H        74.1593   -8.2782   67.5641  H     
30   H        76.9940  -11.8545   68.3884  H     
31   H        76.9233  -14.2594   68.4116  H     
32   H        72.7474  -14.1403   68.9408  H     
33   H        72.8017  -11.7272   68.8958  H     
34   H        76.6742   -8.0699   69.2302  H     
35   H        77.1593   -7.1127   71.3770  H     
36   H        74.2132   -9.5601   73.1317  H     
37   H        73.7282  -10.5304   70.9833  H     
38   H        73.8685  -10.9183   66.2555  H     
39   H        72.2999  -10.1935   66.5094  H     
40   H        72.7238   -8.6555   64.9761  H     
41   H        72.8913   -7.0517   63.7709  H     
42   H        72.9807   -5.6823   61.7992  H     
43   H        74.7573   -6.0374   60.1646  H     
44   H        76.3549   -9.0771   62.4058  H     
@<TRIPOS>BOND
     1    1    2 1
     2    1    3 1
     3    1    4 1
     4    2    5 2
     5    2    9 1
     6    3   15 1
     7    4   10 2
     8    4   14 1
     9    5    6 1
    10    6    7 2
    11    7    8 1
    12    7   25 1
    13    8    9 2
    14   10   11 1
    15   11   12 2
    16   12   13 1
    17   12   26 1
    18   13   14 2
    19   15   16 1
    20   16   17 am
    21   17   18 1
    22   17   19 2
    23   18   20 2
    24   18   24 1
    25   20   21 1
    26   21   22 2
    27   22   23 1
    28   23   24 2
    29    1   27 1
    30    3   28 1
    31    3   29 1
    32    5   30 1
    33    6   31 1
    34    8   32 1
    35    9   33 1
    36   10   34 1
    37   11   35 1
    38   13   36 1
    39   14   37 1
    40   15   38 1
    41   15   39 1
    42   16   40 1
    43   20   41 1
    44   21   42 1
    45   22   43 1
    46   24   44 1
@<TRIPOS>PROPERTY_DATA
  Total_Score	| 10.2653
  Crash		| -0.8786
  Polar		| 2.3354
  FragIndex	| 1
  FragRMSD	| 0.529

