@<TRIPOS>MOLECULE
BindingDB_50297400
 52 54 0 0 0
SMALL
NO_CHARGES


@<TRIPOS>ATOM
1    C        73.8985   -9.8618   69.2305  C     
2    C        74.3023  -11.3112   69.0655  C     
3    C        73.7034   -9.0963   67.8514  C     
4    C        74.6858   -9.2603   70.3793  C     
5    C        75.6384  -11.6810   68.7478  C     
6    C        76.0153  -13.0283   68.5798  C     
7    C        75.0601  -14.0481   68.7513  C     
8    C        73.7311  -13.7132   69.0696  C     
9    C        73.3600  -12.3593   69.2199  C     
10   C        75.5936   -8.1696   70.2917  C     
11   C        76.2577   -7.6870   71.4414  C     
12   C        76.0645   -8.2867   72.7087  C     
13   C        75.1798   -9.3781   72.7980  C     
14   C        74.5132   -9.8550   71.6602  C     
15   C        74.1311   -9.8568   66.5579  C     
16   N        73.9773   -9.0533   65.3660  N     
17   C        74.8160   -9.0916   64.3296  C     
18   C        74.7312   -8.2502   63.2109  C     
19   O        75.7728   -9.8518   64.4094  O     
20   C        73.6692   -7.3254   63.0415  C     
21   C        73.6177   -6.4681   61.9254  C     
22   C        74.6200   -6.5252   60.9394  C     
23   C        75.6863   -7.4290   61.0903  C     
24   C        75.7366   -8.2790   62.2077  C     
25   F        75.4040  -15.3032   68.6084  F     
26   S        76.7998   -7.6670   74.1683  S     
27   C        77.5685   -8.9275   75.2005  C     
28   O        77.9225   -6.5990   73.8054  O     
29   O        75.6710   -6.8786   74.9647  O     
30   C        74.5712   -5.7657   59.8869  C     
31   N        74.5387   -5.1099   58.9468  N     
32   H        72.8815   -9.8818   69.6520  H     
33   H        72.6165   -8.8735   67.7531  H     
34   H        74.2228   -8.1413   67.8695  H     
35   H        76.3554  -10.9625   68.6364  H     
36   H        76.9891  -13.2621   68.3488  H     
37   H        73.0339  -14.4550   69.2133  H     
38   H        72.3879  -12.1469   69.4485  H     
39   H        75.7846   -7.7097   69.3995  H     
40   H        76.8908   -6.8878   71.3358  H     
41   H        75.0096   -9.8272   73.6989  H     
42   H        73.8976  -10.6718   71.7853  H     
43   H        75.1924  -10.1522   66.6674  H     
44   H        73.4834  -10.7587   66.4412  H     
45   H        73.2245   -8.4313   65.3372  H     
46   H        72.9119   -7.2662   63.7205  H     
47   H        72.8509   -5.7998   61.8511  H     
48   H        76.4338   -7.4816   60.3946  H     
49   H        76.5319   -8.9227   62.2793  H     
50   H        76.8114   -9.5572   75.6696  H     
51   H        78.1444   -8.4240   75.9728  H     
52   H        78.2335   -9.5455   74.5920  H     
@<TRIPOS>BOND
     1    1    2 1
     2    1    3 1
     3    1    4 1
     4    2    5 2
     5    2    9 1
     6    3   15 1
     7    4   10 2
     8    4   14 1
     9    5    6 1
    10    6    7 2
    11    7    8 1
    12    7   25 1
    13    8    9 2
    14   10   11 1
    15   11   12 2
    16   12   13 1
    17   12   26 1
    18   13   14 2
    19   15   16 1
    20   16   17 am
    21   17   18 1
    22   17   19 2
    23   18   20 2
    24   18   24 1
    25   20   21 1
    26   21   22 2
    27   22   23 1
    28   22   30 1
    29   23   24 2
    30   26   27 1
    31   26   28 2
    32   26   29 2
    33   30   31 3
    34    1   32 1
    35    3   33 1
    36    3   34 1
    37    5   35 1
    38    6   36 1
    39    8   37 1
    40    9   38 1
    41   10   39 1
    42   11   40 1
    43   13   41 1
    44   14   42 1
    45   15   43 1
    46   15   44 1
    47   16   45 1
    48   20   46 1
    49   21   47 1
    50   23   48 1
    51   24   49 1
    52   27   50 1
    53   27   51 1
    54   27   52 1
@<TRIPOS>PROPERTY_DATA
  Total_Score	| 12.3071
  Crash		| -1.5929
  Polar		| 4.5402
  FragIndex	| 1
  FragRMSD	| 0.474

