@<TRIPOS>MOLECULE
BindingDB_50336821
 34 36 0 0 0
SMALL
NO_CHARGES


@<TRIPOS>ATOM
1    C        73.7034   -6.4667   61.9550  C     
2    C        74.6230   -6.6783   60.9084  C     
3    C        75.6386   -7.6427   61.0652  C     
4    C        75.7355   -8.3782   62.2589  C     
5    C        74.8311   -8.1750   63.3372  C     
6    C        73.8032   -7.2114   63.1443  C     
7    C        74.9836   -8.8667   64.5415  C     
8    N        74.2785   -8.5669   65.6249  N     
9    C        74.4497   -9.1741   66.9028  C     
10   C        73.5807  -10.4177   67.1306  C     
11   C        73.2665   -9.1135   67.8855  C     
12   C        74.0800  -11.5354   67.9460  C     
13   C        73.1630  -12.4144   68.5452  C     
14   C        73.6177  -13.5660   69.2142  C     
15   C        74.9908  -13.8419   69.2932  C     
16   C        75.9201  -12.9612   68.7055  C     
17   C        75.4644  -11.8106   68.0316  C     
18   O        75.8539   -9.7279   64.6374  O     
19   C        74.5333   -6.0048   59.7974  C     
20   N        74.4511   -5.4162   58.8180  N     
21   H        72.9596   -5.7695   61.8663  H     
22   H        76.3173   -7.8215   60.3113  H     
23   H        76.4985   -9.0612   62.3355  H     
24   H        73.1113   -7.0259   63.8707  H     
25   H        73.6012   -7.8824   65.5623  H     
26   H        75.4262   -9.1326   67.3954  H     
27   H        72.8580  -10.6589   66.3461  H     
28   H        73.5243   -9.0984   68.9483  H     
29   H        72.3433   -8.6417   67.5602  H     
30   H        72.1598  -12.2448   68.4754  H     
31   H        72.9368  -14.2029   69.6228  H     
32   H        75.3233  -14.6824   69.7749  H     
33   H        76.9255  -13.1682   68.7463  H     
34   H        76.1458  -11.1974   67.5750  H     
@<TRIPOS>BOND
     1    1    2 2
     2    1    6 1
     3    2    3 1
     4    2   19 1
     5    3    4 2
     6    4    5 1
     7    5    6 2
     8    5    7 1
     9    7    8 am
    10    7   18 2
    11    9    8 1
    12    9   10 1
    13    9   11 1
    14   10   11 1
    15   10   12 1
    16   12   13 2
    17   12   17 1
    18   13   14 1
    19   14   15 2
    20   15   16 1
    21   16   17 2
    22   19   20 3
    23    1   21 1
    24    3   22 1
    25    4   23 1
    26    6   24 1
    27    8   25 1
    28    9   26 1
    29   10   27 1
    30   11   28 1
    31   11   29 1
    32   13   30 1
    33   14   31 1
    34   15   32 1
    35   16   33 1
    36   17   34 1
@<TRIPOS>PROPERTY_DATA
  Total_Score	| 6.2542
  Crash		| -1.3084
  Polar		| 1.7137
  FragIndex	| 1
  FragRMSD	| 1.188

