@<TRIPOS>MOLECULE
BindingDB_50297416
 46 48 0 0 0
SMALL
NO_CHARGES


@<TRIPOS>ATOM
1    C        74.9238  -10.0588   68.5436  C     
2    C        74.9207  -11.5573   68.6596  C     
3    C        73.7034   -9.4069   67.8137  C     
4    C        75.1505   -9.4491   69.8973  C     
5    C        73.7408  -12.3040   68.8985  C     
6    C        73.7825  -13.7010   69.0442  C     
7    C        75.0088  -14.3817   68.9511  C     
8    C        76.1924  -13.6617   68.7222  C     
9    C        76.1458  -12.2660   68.5817  C     
10   C        74.3974   -9.8595   71.0284  C     
11   C        74.6596   -9.3360   72.3070  C     
12   C        75.6767   -8.3846   72.4803  C     
13   C        76.4135   -7.9392   71.3670  C     
14   C        76.1518   -8.4674   70.0902  C     
15   C        73.2882  -10.0509   66.4584  C     
16   N        73.5005   -9.2168   65.3153  N     
17   C        74.6091   -9.0706   64.5984  C     
18   C        74.6211   -8.2623   63.4529  C     
19   C        75.5890   -8.4492   62.4320  C     
20   C        75.5714   -7.6820   61.2503  C     
21   C        74.5913   -6.6878   61.0645  C     
22   C        73.6484   -6.4565   62.0855  C     
23   C        73.6697   -7.2313   63.2608  C     
24   O        75.6084   -9.7036   64.9176  O     
25   C        74.5478   -5.9973   59.9596  C     
26   N        74.5044   -5.3927   58.9843  N     
27   F        75.0553  -15.6755   69.0856  F     
28   F        75.9264   -7.9041   73.6677  F     
29   H        75.7715   -9.7947   67.9015  H     
30   H        72.8369   -9.4275   68.4834  H     
31   H        73.9280   -8.3497   67.6357  H     
32   H        72.8369  -11.8382   68.9695  H     
33   H        72.9215  -14.2189   69.2185  H     
34   H        77.0914  -14.1473   68.6647  H     
35   H        77.0237  -11.7649   68.4377  H     
36   H        73.6490  -10.5471   70.9303  H     
37   H        74.1066   -9.6493   73.1081  H     
38   H        77.1454   -7.2368   71.4822  H     
39   H        76.7096   -8.1364   69.3010  H     
40   H        73.7588  -11.0232   66.3048  H     
41   H        72.2124  -10.2278   66.4949  H     
42   H        72.7179   -8.7519   64.9952  H     
43   H        76.3128   -9.1668   62.5247  H     
44   H        76.2785   -7.8634   60.5276  H     
45   H        72.9281   -5.7335   61.9827  H     
46   H        72.9658   -7.0284   63.9739  H     
@<TRIPOS>BOND
     1    1    2 1
     2    1    3 1
     3    1    4 1
     4    2    5 2
     5    2    9 1
     6    3   15 1
     7    4   10 2
     8    4   14 1
     9    5    6 1
    10    6    7 2
    11    7    8 1
    12    7   27 1
    13    8    9 2
    14   10   11 1
    15   11   12 2
    16   12   13 1
    17   12   28 1
    18   13   14 2
    19   15   16 1
    20   16   17 am
    21   17   18 1
    22   17   24 2
    23   18   19 2
    24   18   23 1
    25   19   20 1
    26   20   21 2
    27   21   22 1
    28   21   25 1
    29   22   23 2
    30   25   26 3
    31    1   29 1
    32    3   30 1
    33    3   31 1
    34    5   32 1
    35    6   33 1
    36    8   34 1
    37    9   35 1
    38   10   36 1
    39   11   37 1
    40   13   38 1
    41   14   39 1
    42   15   40 1
    43   15   41 1
    44   16   42 1
    45   19   43 1
    46   20   44 1
    47   22   45 1
    48   23   46 1
@<TRIPOS>PROPERTY_DATA
  Total_Score	| 10.9240
  Crash		| -1.0788
  Polar		| 2.2496
  FragIndex	| 1
  FragRMSD	| 0.386

