@<TRIPOS>MOLECULE
BindingDB_6051
 55 59 0 0 0
SMALL
NO_CHARGES


@<TRIPOS>ATOM
1    C        79.3904   59.5012   14.4842  C     
2    C        79.3390   58.4067   15.3772  C     
3    C        80.3363   57.4128   15.3711  C     
4    C        81.4059   57.4861   14.4581  C     
5    N        78.2974   60.3186   14.4601  N     
6    C        78.2461   61.6269   14.5945  C     
7    O        79.1937   62.3390   14.9494  O     
8    C        80.4768   59.5732   13.5671  C     
9    C        81.4663   58.5742   13.5771  C     
10   C        80.7739   60.4277   12.5217  C     
11   O        80.0904   61.3598   12.1161  O     
12   C        82.3391   58.8526   12.5453  C     
13   C        81.9093   59.9773   11.8924  C     
14   C        82.8124   60.1680   10.8457  C     
15   N        83.4083   58.3401   11.9161  N     
16   N        83.6857   59.1370   10.9334  N     
17   N        77.1140   62.1982   14.1942  N     
18   C        75.7826   65.2819   14.9503  C     
19   C        78.1438   65.4835   14.1654  C     
20   C        77.8917   64.2508   13.2461  C     
21   C        75.6435   63.9969   14.0852  C     
22   N        76.9138   63.4425   13.8796  N     
23   N        76.8733   66.2077   14.4770  N     
24   C        76.4201   67.1226   13.3902  C     
25   C        82.8348   61.1688    9.8497  C     
26   C        82.3397   63.0038    8.1401  C     
27   C        83.9269   61.6444    9.0833  C     
28   S        81.4798   62.0796    9.3067  S     
29   N        83.6291   62.6163    8.1848  N     
30   C        81.7876   64.0291    7.2492  C     
31   C        85.3221   61.2274    9.2559  C     
32   H        78.5601   58.3181   16.0343  H     
33   H        80.2770   56.6209   16.0192  H     
34   H        82.1220   56.7515   14.4343  H     
35   H        77.4465   59.8882   14.2705  H     
36   H        84.3708   58.9529   10.2737  H     
37   H        76.3409   61.6178   14.0764  H     
38   H        74.8166   65.7944   15.0041  H     
39   H        76.0379   64.9715   15.9727  H     
40   H        78.5947   65.1285   15.1054  H     
41   H        78.8804   66.1493   13.6885  H     
42   H        77.5368   64.5881   12.2617  H     
43   H        78.8153   63.6784   13.0554  H     
44   H        74.9657   63.3155   14.6226  H     
45   H        75.1698   64.2471   13.1273  H     
46   H        77.1033   66.8093   15.2738  H     
47   H        77.2184   67.8264   13.1291  H     
48   H        75.5631   67.7136   13.7252  H     
49   H        76.1313   66.5737   12.4906  H     
50   H        81.0341   63.5811    6.6015  H     
51   H        82.5760   64.4574    6.6283  H     
52   H        81.3341   64.8217    7.8467  H     
53   H        85.6272   61.4083   10.2908  H     
54   H        85.9996   61.7896    8.6008  H     
55   H        85.4311   60.1666    9.0221  H     
@<TRIPOS>BOND
     1    1    2 1
     2    1    5 1
     3    1    8 2
     4    2    3 2
     5    3    4 1
     6    4    9 2
     7    5    6 am
     8    6    7 2
     9    6   17 am
    10    8    9 1
    11    8   10 1
    12    9   12 1
    13   10   11 2
    14   10   13 1
    15   12   13 1
    16   12   15 2
    17   13   14 2
    18   14   16 1
    19   14   25 1
    20   15   16 1
    21   17   22 1
    22   18   21 1
    23   18   23 1
    24   19   20 1
    25   19   23 1
    26   20   22 1
    27   21   22 1
    28   23   24 1
    29   25   27 2
    30   25   28 1
    31   26   28 1
    32   26   29 2
    33   26   30 1
    34   27   29 1
    35   27   31 1
    36    2   32 1
    37    3   33 1
    38    4   34 1
    39    5   35 1
    40   16   36 1
    41   17   37 1
    42   18   38 1
    43   18   39 1
    44   19   40 1
    45   19   41 1
    46   20   42 1
    47   20   43 1
    48   21   44 1
    49   21   45 1
    50   23   46 1
    51   24   47 1
    52   24   48 1
    53   24   49 1
    54   30   50 1
    55   30   51 1
    56   30   52 1
    57   31   53 1
    58   31   54 1
    59   31   55 1
@<TRIPOS>PROPERTY_DATA
  Total_Score	| 8.7147
  Crash		| -1.6170
  Polar		| 2.8952
  FragIndex	| 1
  FragRMSD	| 0.958

