@<TRIPOS>MOLECULE
BindingDB_6054
 71 76 0 0 0
SMALL
NO_CHARGES


@<TRIPOS>ATOM
1    C        79.5405   59.6380   14.0640  C     
2    C        79.3597   58.6619   15.0694  C     
3    C        80.3048   57.6238   15.2307  C     
4    C        81.4138   57.5234   14.3666  C     
5    N        78.5905   60.5774   13.8316  N     
6    C        78.3766   61.6404   14.5789  C     
7    O        78.9855   61.8430   15.6277  O     
8    C        80.6727   59.5640   13.2211  C     
9    C        81.5750   58.5013   13.3681  C     
10   C        81.1125   60.3957   12.2114  C     
11   O        80.5829   61.4370   11.8521  O     
12   C        82.5133   58.6776   12.3589  C     
13   C        82.2290   59.8339   11.6726  C     
14   C        83.1896   59.9357   10.6803  C     
15   N        83.5495   58.0572   11.7744  N     
16   N        83.9421   58.8205   10.8001  N     
17   N        77.4934   62.4979   14.1033  N     
18   C        77.2276   65.8430   13.6955  C     
19   C        75.1583   64.8654   14.4721  C     
20   C        75.9599   63.7862   15.2429  C     
21   C        78.0363   64.7386   14.4217  C     
22   N        77.2218   63.6133   14.6508  N     
23   C        83.3967   60.9302    9.7073  C     
24   C        83.3938   62.9894    8.1187  C     
25   C        84.4549   60.9841    8.7878  C     
26   S        82.4529   62.3398    9.4112  S     
27   O        75.9522   66.0625   14.3326  O     
28   C        84.4511   62.0950    7.9277  C     
29   C        83.1902   64.1886    7.4654  C     
30   O        83.9065   64.5038    6.5182  O     
31   N        82.3007   65.0494    7.9603  N     
32   C        82.1921   66.4373    7.5955  C     
33   C        81.3714   67.2140    8.6669  C     
34   C        77.8492   68.0943    7.2958  C     
35   C        77.0934   68.1026    8.6430  C     
36   C        77.6008   66.9538    9.5501  C     
37   C        79.1341   67.0554    9.7519  C     
38   C        79.3792   68.1920    7.5379  C     
39   N        79.8889   67.1188    8.4568  N     
40   H        78.5421   58.6900   15.6832  H     
41   H        80.1776   56.9173   15.9606  H     
42   H        82.0914   56.7637   14.4569  H     
43   H        78.1585   60.5555   12.9546  H     
44   H        84.6346   58.5732   10.1728  H     
45   H        76.9797   62.2289   13.3188  H     
46   H        77.7880   66.7810   13.7106  H     
47   H        77.0720   65.5616   12.6545  H     
48   H        74.8712   64.4837   13.4877  H     
49   H        74.2445   65.1043   15.0267  H     
50   H        76.0973   64.1065   16.2801  H     
51   H        75.3771   62.8565   15.2699  H     
52   H        78.9220   64.5015   13.8285  H     
53   H        78.3901   65.1196   15.3785  H     
54   H        85.2029   60.2818    8.7522  H     
55   H        85.1957   62.2466    7.2365  H     
56   H        81.7751   64.7516    8.7264  H     
57   H        83.1975   66.8911    7.5458  H     
58   H        81.7313   66.5210    6.6052  H     
59   H        81.6715   66.8220    9.6428  H     
60   H        81.6986   68.2555    8.6642  H     
61   H        77.6228   67.1707    6.7520  H     
62   H        77.5168   68.9393    6.6853  H     
63   H        77.2442   69.0614    9.1471  H     
64   H        76.0214   67.9831    8.4705  H     
65   H        77.0930   67.0047   10.5184  H     
66   H        77.3543   65.9906    9.0873  H     
67   H        79.3549   67.9343   10.3663  H     
68   H        79.4457   66.1683   10.3090  H     
69   H        79.8782   68.1201    6.5696  H     
70   H        79.5976   69.1833    7.9502  H     
71   H        79.7106   66.2258    7.9895  H     
@<TRIPOS>BOND
     1    1    2 1
     2    1    5 1
     3    1    8 2
     4    2    3 2
     5    3    4 1
     6    4    9 2
     7    5    6 am
     8    6    7 2
     9    6   17 am
    10    8    9 1
    11    8   10 1
    12    9   12 1
    13   10   11 2
    14   10   13 1
    15   12   13 1
    16   12   15 2
    17   13   14 2
    18   14   16 1
    19   14   23 1
    20   15   16 1
    21   17   22 1
    22   18   21 1
    23   18   27 1
    24   19   20 1
    25   19   27 1
    26   20   22 1
    27   21   22 1
    28   23   25 2
    29   23   26 1
    30   24   26 1
    31   24   28 2
    32   24   29 1
    33   25   28 1
    34   29   30 2
    35   29   31 am
    36   31   32 1
    37   32   33 1
    38   33   39 1
    39   34   35 1
    40   34   38 1
    41   35   36 1
    42   36   37 1
    43   37   39 1
    44   38   39 1
    45    2   40 1
    46    3   41 1
    47    4   42 1
    48    5   43 1
    49   16   44 1
    50   17   45 1
    51   18   46 1
    52   18   47 1
    53   19   48 1
    54   19   49 1
    55   20   50 1
    56   20   51 1
    57   21   52 1
    58   21   53 1
    59   25   54 1
    60   28   55 1
    61   31   56 1
    62   32   57 1
    63   32   58 1
    64   33   59 1
    65   33   60 1
    66   34   61 1
    67   34   62 1
    68   35   63 1
    69   35   64 1
    70   36   65 1
    71   36   66 1
    72   37   67 1
    73   37   68 1
    74   38   69 1
    75   38   70 1
    76   39   71 1
@<TRIPOS>PROPERTY_DATA
  Total_Score	| 9.6858
  Crash		| -1.8149
  Polar		| 3.4346
  FragIndex	| 1
  FragRMSD	| 0.863

