@<TRIPOS>MOLECULE
BindingDB_6043
 45 48 0 0 0
SMALL
NO_CHARGES


@<TRIPOS>ATOM
1    C        79.7584   59.6708   14.3033  C     
2    C        79.6472   58.5727   15.1925  C     
3    C        80.5727   57.5063   15.1481  C     
4    C        81.6368   57.5188   14.2251  C     
5    N        78.9500   60.7657   14.3821  N     
6    C        77.6235   60.8028   14.3513  C     
7    O        76.9536   59.7918   14.2113  O     
8    N        76.9366   61.9324   14.4629  N     
9    N        77.4123   63.0855   14.7717  N     
10   C        78.0503   63.2256   16.0201  C     
11   C        76.7600   64.2044   14.2304  C     
12   C        80.8191   59.6641   13.3697  C     
13   C        81.7407   58.6062   13.3427  C     
14   C        81.1246   60.5303   12.3381  C     
15   O        80.4384   61.4640   11.9537  O     
16   C        82.6087   58.8663   12.2937  C     
17   C        82.2128   60.0303   11.6794  C     
18   C        83.0711   60.2076   10.6000  C     
19   N        83.6523   58.3467   11.6358  N     
20   N        83.9213   59.1603   10.6584  N     
21   C        83.0445   61.2060    9.6000  C     
22   C        82.4362   63.0327    7.9274  C     
23   C        84.0740   61.6428    8.7391  C     
24   S        81.6626   62.1374    9.1708  S     
25   N        83.7190   62.6206    7.8662  N     
26   C        81.8343   64.0778    7.0981  C     
27   C        85.4660   61.1640    8.7592  C     
28   H        78.9044   58.5537   15.8964  H     
29   H        80.4776   56.7234   15.7991  H     
30   H        82.3035   56.7446   14.1860  H     
31   H        79.4013   61.6216   14.4338  H     
32   H        75.9865   61.8831   14.2613  H     
33   H        78.7595   64.0568   16.0045  H     
34   H        78.6101   62.3346   16.3138  H     
35   H        77.2946   63.4046   16.7895  H     
36   H        76.4753   64.0374   13.1838  H     
37   H        77.4208   65.0731   14.2484  H     
38   H        75.8595   64.4390   14.8078  H     
39   H        84.5964   58.9740    9.9927  H     
40   H        81.0071   63.6640    6.5320  H     
41   H        82.5693   64.4821    6.3990  H     
42   H        81.4721   64.8823    7.7351  H     
43   H        85.8745   61.2938    9.7625  H     
44   H        86.0883   61.7291    8.0611  H     
45   H        85.5017   60.1115    8.4757  H     
@<TRIPOS>BOND
     1    1    2 1
     2    1    5 1
     3    1   12 2
     4    2    3 2
     5    3    4 1
     6    4   13 2
     7    5    6 am
     8    6    7 2
     9    6    8 am
    10    8    9 1
    11    9   10 1
    12    9   11 1
    13   12   13 1
    14   12   14 1
    15   13   16 1
    16   14   15 2
    17   14   17 1
    18   16   17 1
    19   16   19 2
    20   17   18 2
    21   18   20 1
    22   18   21 1
    23   19   20 1
    24   21   23 2
    25   21   24 1
    26   22   24 1
    27   22   25 2
    28   22   26 1
    29   23   25 1
    30   23   27 1
    31    2   28 1
    32    3   29 1
    33    4   30 1
    34    5   31 1
    35    8   32 1
    36   10   33 1
    37   10   34 1
    38   10   35 1
    39   11   36 1
    40   11   37 1
    41   11   38 1
    42   20   39 1
    43   26   40 1
    44   26   41 1
    45   26   42 1
    46   27   43 1
    47   27   44 1
    48   27   45 1
@<TRIPOS>PROPERTY_DATA
  Total_Score	| 7.0958
  Crash		| -1.8758
  Polar		| 1.8693
  FragIndex	| 1
  FragRMSD	| 1.070

