@<TRIPOS>MOLECULE
BindingDB_6053
 68 73 0 0 0
SMALL
NO_CHARGES


@<TRIPOS>ATOM
1    C        80.1634   59.8596   15.1384  C     
2    C        79.9828   58.7281   15.9709  C     
3    C        80.5609   57.4824   15.6484  C     
4    C        81.3551   57.3444   14.4942  C     
5    N        79.5673   61.0104   15.5609  N     
6    C        78.8199   61.8417   14.8568  C     
7    O        78.5458   61.6256   13.6814  O     
8    C        80.9573   59.7141   13.9685  C     
9    C        81.5293   58.4657   13.6708  C     
10   C        81.3658   60.5945   12.9767  C     
11   O        81.2475   61.8111   12.9918  O     
12   C        82.2411   58.6036   12.4992  C     
13   C        82.1210   59.9006   12.0608  C     
14   C        82.8363   59.9524   10.8688  C     
15   N        83.0036   57.9009   11.6529  N     
16   N        83.3581   58.7184   10.7069  N     
17   N        78.3278   62.8926   15.4895  N     
18   C        75.5934   63.8884   13.5926  C     
19   C        77.5492   65.1304   12.9377  C     
20   C        78.1810   64.9130   14.3363  C     
21   C        76.1896   63.6762   15.0104  C     
22   N        77.5926   63.7896   14.9486  N     
23   C        83.0168   61.0121    9.9666  C     
24   C        83.0369   63.2843    8.7141  C     
25   C        83.8467   61.0584    8.8419  C     
26   S        82.2584   62.5507   10.0647  S     
27   O        76.1082   65.1032   13.0075  O     
28   C        83.8621   62.2905    8.1631  C     
29   C        82.8939   64.6049    8.3346  C     
30   O        83.4874   65.0150    7.3440  O     
31   N        82.1632   65.4223    9.0793  N     
32   C        82.0226   66.8381    8.9350  C     
33   C        80.7050   67.3263    9.5880  C     
34   C        78.2202   66.9355    9.5449  C     
35   C        79.2066   67.8944    7.6418  C     
36   C        77.7621   67.5626    7.2219  C     
37   C        77.0869   67.0454    8.5049  C     
38   N        79.4894   66.9874    8.7754  N     
39   H        79.4014   58.7965   16.8115  H     
40   H        80.3947   56.6741   16.2485  H     
41   H        81.7859   56.4506   14.2612  H     
42   H        79.5797   61.1642   16.5201  H     
43   H        83.9243   58.4635    9.9674  H     
44   H        78.5333   62.9938   16.4337  H     
45   H        75.8362   63.0318   12.9587  H     
46   H        74.5067   63.9665   13.6546  H     
47   H        77.8552   66.1032   12.5476  H     
48   H        77.8990   64.3607   12.2419  H     
49   H        79.2615   64.8078   14.2215  H     
50   H        77.9944   65.7985   14.9471  H     
51   H        75.7941   64.4387   15.6859  H     
52   H        75.8669   62.6978   15.3846  H     
53   H        84.4246   60.2697    8.5365  H     
54   H        84.4459   62.4468    7.3354  H     
55   H        81.7330   65.0286    9.8583  H     
56   H        82.8668   67.3098    9.4431  H     
57   H        82.0461   67.1380    7.8848  H     
58   H        80.6314   66.8712   10.5819  H     
59   H        80.7626   68.4075    9.7478  H     
60   H        78.1491   67.7659   10.2558  H     
61   H        78.1517   65.9942   10.0851  H     
62   H        79.9008   67.7244    6.8172  H     
63   H        79.2652   68.9490    7.9409  H     
64   H        77.2545   68.4449    6.8244  H     
65   H        77.7566   66.7772    6.4594  H     
66   H        76.6315   66.0663    8.3307  H     
67   H        76.3168   67.7414    8.8432  H     
68   H        79.6236   66.0576    8.3740  H     
@<TRIPOS>BOND
     1    1    2 1
     2    1    5 1
     3    1    8 2
     4    2    3 2
     5    3    4 1
     6    4    9 2
     7    5    6 am
     8    6    7 2
     9    6   17 am
    10    8    9 1
    11    8   10 1
    12    9   12 1
    13   10   11 2
    14   10   13 1
    15   12   13 1
    16   12   15 2
    17   13   14 2
    18   14   16 1
    19   14   23 1
    20   15   16 1
    21   17   22 1
    22   18   21 1
    23   18   27 1
    24   19   20 1
    25   19   27 1
    26   20   22 1
    27   21   22 1
    28   23   25 2
    29   23   26 1
    30   24   26 1
    31   24   28 2
    32   24   29 1
    33   25   28 1
    34   29   30 2
    35   29   31 am
    36   31   32 1
    37   32   33 1
    38   33   38 1
    39   34   37 1
    40   34   38 1
    41   35   36 1
    42   35   38 1
    43   36   37 1
    44    2   39 1
    45    3   40 1
    46    4   41 1
    47    5   42 1
    48   16   43 1
    49   17   44 1
    50   18   45 1
    51   18   46 1
    52   19   47 1
    53   19   48 1
    54   20   49 1
    55   20   50 1
    56   21   51 1
    57   21   52 1
    58   25   53 1
    59   28   54 1
    60   31   55 1
    61   32   56 1
    62   32   57 1
    63   33   58 1
    64   33   59 1
    65   34   60 1
    66   34   61 1
    67   35   62 1
    68   35   63 1
    69   36   64 1
    70   36   65 1
    71   37   66 1
    72   37   67 1
    73   38   68 1
@<TRIPOS>PROPERTY_DATA
  Total_Score	| 9.3429
  Crash		| -2.2342
  Polar		| 3.6691
  FragIndex	| 1
  FragRMSD	| 1.078

