@<TRIPOS>MOLECULE
BindingDB_5647
 35 38 0 0 0
SMALL
NO_CHARGES


@<TRIPOS>ATOM
1    C        79.8630   59.6645   14.9918  C     
2    C        79.8588   58.4880   15.7911  C     
3    C        80.6752   57.3731   15.5084  C     
4    C        81.5481   57.3921   14.4091  C     
5    N        79.0197   60.6460   15.4802  N     
6    C        78.6054   61.8710   15.1672  C     
7    O        78.8635   62.5584   14.1907  O     
8    C        81.5688   58.5401   13.6070  C     
9    C        80.7425   59.6520   13.8684  C     
10   C        80.9757   60.5449   12.8535  C     
11   O        80.1450   61.3282   12.4520  O     
12   C        82.2792   58.7932   12.4417  C     
13   C        81.9087   60.0345   12.0021  C     
14   C        82.5687   60.2401   10.7962  C     
15   N        83.1155   58.2428   11.5465  N     
16   N        83.2869   59.1142   10.5944  N     
17   N        77.7884   62.4346   16.0264  N     
18   C        82.4967   61.3467    9.9242  C     
19   C        82.6286   62.9993    7.9370  C     
20   C        82.0148   63.5140    9.0822  C     
21   C        81.9495   62.6159   10.1624  C     
22   S        83.0908   61.3844    8.3077  S     
23   C        82.8480   63.7103    6.6700  C     
24   H        79.2455   58.4260   16.6098  H     
25   H        80.6300   56.5443   16.1033  H     
26   H        82.1376   56.5839   14.1913  H     
27   H        78.6099   60.3615   16.3125  H     
28   H        83.8339   58.9502    9.8113  H     
29   H        77.4473   63.3306   15.8656  H     
30   H        77.5245   61.9601   16.8304  H     
31   H        81.6588   64.4705    9.1413  H     
32   H        81.5537   62.9002   11.0575  H     
33   H        81.8858   64.0007    6.2392  H     
34   H        83.3808   63.0797    5.9553  H     
35   H        83.4394   64.6101    6.8564  H     
@<TRIPOS>BOND
     1    1    2 1
     2    1    5 1
     3    1    9 2
     4    2    3 2
     5    3    4 1
     6    4    8 2
     7    5    6 am
     8    6    7 2
     9    6   17 am
    10    8    9 1
    11    8   12 1
    12    9   10 1
    13   10   11 2
    14   10   13 1
    15   12   13 1
    16   12   15 2
    17   13   14 2
    18   14   16 1
    19   14   18 1
    20   15   16 1
    21   18   21 2
    22   18   22 1
    23   19   20 2
    24   19   22 1
    25   19   23 1
    26   20   21 1
    27    2   24 1
    28    3   25 1
    29    4   26 1
    30    5   27 1
    31   16   28 1
    32   17   29 1
    33   17   30 1
    34   20   31 1
    35   21   32 1
    36   23   33 1
    37   23   34 1
    38   23   35 1
@<TRIPOS>PROPERTY_DATA
  Total_Score	| 5.5692
  Crash		| -0.4655
  Polar		| 1.8297
  FragIndex	| 1
  FragRMSD	| 1.094

