@<TRIPOS>MOLECULE
BindingDB_6049
 59 63 0 0 0
SMALL
NO_CHARGES


@<TRIPOS>ATOM
1    C        80.2068   59.7723   14.8457  C     
2    C        80.0115   58.6605   15.6975  C     
3    C        80.6612   57.4358   15.4305  C     
4    C        81.5464   57.3187   14.3430  C     
5    N        79.6027   60.9477   15.1528  N     
6    C        78.6213   61.5023   14.4663  C     
7    O        78.0799   60.9225   13.5320  O     
8    C        81.0771   59.6496   13.7310  C     
9    C        81.7427   58.4331   13.5110  C     
10   C        81.5045   60.5457   12.7623  C     
11   O        81.1312   61.7049   12.6411  O     
12   C        82.5796   58.6273   12.4240  C     
13   C        82.4433   59.9228   11.9754  C     
14   C        83.3286   60.0323   10.9015  C     
15   N        83.4796   57.9762   11.6744  N     
16   N        83.9134   58.8241   10.7939  N     
17   N        78.3138   62.7555   14.7681  N     
18   C        75.3814   64.5095   14.8077  C     
19   C        77.2335   65.8613   13.8544  C     
20   C        77.8974   64.5530   13.3629  C     
21   C        76.0691   63.2314   14.2681  C     
22   N        77.4530   63.4655   14.1344  N     
23   C        83.5996   61.0989   10.0168  C     
24   C        84.4735   62.6541    8.1304  C     
25   C        82.9486   62.3394    9.9147  C     
26   S        84.8125   61.0946    8.7797  S     
27   N        75.7531   65.7034   13.9848  N     
28   C        75.0972   66.9466   14.4652  C     
29   C        83.4310   63.1831    8.8978  C     
30   C        85.0935   63.2589    7.0189  C     
31   O        84.6789   64.4874    6.6096  O     
32   O        86.0939   62.6251    6.3524  O     
33   C        86.8181   63.0605    5.1892  C     
34   C        86.6966   62.0275    4.0539  C     
35   H        79.3976   58.7394   16.5124  H     
36   H        80.5046   56.6401   16.0487  H     
37   H        82.0427   56.4442   14.1671  H     
38   H        79.8854   61.3937   15.9654  H     
39   H        84.5619   58.5964   10.1093  H     
40   H        78.8909   63.2193   15.3982  H     
41   H        74.3006   64.3624   14.7754  H     
42   H        75.6719   64.6616   15.8528  H     
43   H        77.6770   66.1446   14.8111  H     
44   H        77.4573   66.6531   13.1356  H     
45   H        77.6201   64.3850   12.3162  H     
46   H        78.9880   64.6687   13.3947  H     
47   H        75.8625   62.4004   14.9504  H     
48   H        75.6454   62.9784   13.2869  H     
49   H        82.1674   62.6186   10.5106  H     
50   H        75.3939   65.5318   13.0421  H     
51   H        75.4472   67.2155   15.4654  H     
52   H        74.0136   66.8190   14.4954  H     
53   H        75.3128   67.7731   13.7844  H     
54   H        83.0262   64.1145    8.7270  H     
55   H        86.4568   64.0277    4.8290  H     
56   H        87.8672   63.1690    5.4701  H     
57   H        87.0377   61.0473    4.3889  H     
58   H        87.3043   62.3394    3.2040  H     
59   H        85.6562   61.9489    3.7264  H     
@<TRIPOS>BOND
     1    1    2 1
     2    1    5 1
     3    1    8 2
     4    2    3 2
     5    3    4 1
     6    4    9 2
     7    5    6 am
     8    6    7 2
     9    6   17 am
    10    8    9 1
    11    8   10 1
    12    9   12 1
    13   10   11 2
    14   10   13 1
    15   12   13 1
    16   12   15 2
    17   13   14 2
    18   14   16 1
    19   14   23 1
    20   15   16 1
    21   17   22 1
    22   18   21 1
    23   18   27 1
    24   19   20 1
    25   19   27 1
    26   20   22 1
    27   21   22 1
    28   23   25 2
    29   23   26 1
    30   24   26 1
    31   24   29 2
    32   24   30 1
    33   25   29 1
    34   27   28 1
    35   30   31 2
    36   30   32 1
    37   32   33 1
    38   33   34 1
    39    2   35 1
    40    3   36 1
    41    4   37 1
    42    5   38 1
    43   16   39 1
    44   17   40 1
    45   18   41 1
    46   18   42 1
    47   19   43 1
    48   19   44 1
    49   20   45 1
    50   20   46 1
    51   21   47 1
    52   21   48 1
    53   25   49 1
    54   27   50 1
    55   28   51 1
    56   28   52 1
    57   28   53 1
    58   29   54 1
    59   33   55 1
    60   33   56 1
    61   34   57 1
    62   34   58 1
    63   34   59 1
@<TRIPOS>PROPERTY_DATA
  Total_Score	| 7.1800
  Crash		| -1.0033
  Polar		| 1.6316
  FragIndex	| 1
  FragRMSD	| 1.218

