@<TRIPOS>MOLECULE
BindingDB_6048
 50 54 0 0 0
SMALL
NO_CHARGES


@<TRIPOS>ATOM
1    C        80.0707   59.8598   15.0262  C     
2    C        79.9960   58.7296   15.8847  C     
3    C        80.6593   57.5279   15.5701  C     
4    C        81.4352   57.4315   14.4055  C     
5    N        79.4436   60.9852   15.4669  N     
6    C        78.6403   61.7978   14.7967  C     
7    O        78.3083   61.5605   13.6365  O     
8    C        80.8497   59.7595   13.8439  C     
9    C        81.5193   58.5509   13.5649  C     
10   C        81.1976   60.6558   12.8505  C     
11   O        80.8787   61.8413   12.7515  O     
12   C        82.2371   58.7374   12.4032  C     
13   C        82.0237   60.0192   11.9655  C     
14   C        82.7619   60.1491   10.8006  C     
15   N        83.0743   58.1072   11.5647  N     
16   N        83.3827   58.9585   10.6347  N     
17   N        78.1685   62.8414   15.4400  N     
18   C        75.3758   64.0703   13.7350  C     
19   C        77.4047   65.0059   12.8270  C     
20   C        78.1147   64.8097   14.1892  C     
21   C        76.0786   63.8350   15.0980  C     
22   N        77.4695   63.7781   14.9120  N     
23   O        75.9826   65.1657   13.0180  O     
24   C        82.8309   61.2311    9.9104  C     
25   C        82.3697   63.1451    8.3051  C     
26   C        83.9329   61.7124    9.1799  C     
27   S        81.4852   62.1855    9.4245  S     
28   N        83.6538   62.7388    8.3330  N     
29   C        81.8287   64.2114    7.4601  C     
30   C        85.3178   61.2502    9.3611  C     
31   H        79.4492   58.7763   16.7482  H     
32   H        80.5890   56.7245   16.1988  H     
33   H        81.9501   56.5752   14.1881  H     
34   H        79.5143   61.1674   16.4186  H     
35   H        83.9583   58.7492    9.8873  H     
36   H        78.3994   62.9397   16.3839  H     
37   H        75.4207   63.1618   13.1295  H     
38   H        74.3253   64.3123   13.9012  H     
39   H        77.7918   65.9052   12.3402  H     
40   H        77.6072   64.1546   12.1711  H     
41   H        79.1757   64.5963   14.0145  H     
42   H        78.0496   65.7400   14.7609  H     
43   H        75.8305   64.6594   15.7751  H     
44   H        75.6887   62.9096   15.5355  H     
45   H        81.1335   63.7796    6.7390  H     
46   H        82.6342   64.7125    6.9187  H     
47   H        81.3077   64.9446    8.0784  H     
48   H        85.4011   60.1907    9.1244  H     
49   H        85.6071   61.4130   10.3991  H     
50   H        86.0105   61.8023    8.7220  H     
@<TRIPOS>BOND
     1    1    2 1
     2    1    5 1
     3    1    8 2
     4    2    3 2
     5    3    4 1
     6    4    9 2
     7    5    6 am
     8    6    7 2
     9    6   17 am
    10    8    9 1
    11    8   10 1
    12    9   12 1
    13   10   11 2
    14   10   13 1
    15   12   13 1
    16   12   15 2
    17   13   14 2
    18   14   16 1
    19   14   24 1
    20   15   16 1
    21   17   22 1
    22   18   21 1
    23   18   23 1
    24   19   20 1
    25   19   23 1
    26   20   22 1
    27   21   22 1
    28   24   26 2
    29   24   27 1
    30   25   27 1
    31   25   28 2
    32   25   29 1
    33   26   28 1
    34   26   30 1
    35    2   31 1
    36    3   32 1
    37    4   33 1
    38    5   34 1
    39   16   35 1
    40   17   36 1
    41   18   37 1
    42   18   38 1
    43   19   39 1
    44   19   40 1
    45   20   41 1
    46   20   42 1
    47   21   43 1
    48   21   44 1
    49   29   45 1
    50   29   46 1
    51   29   47 1
    52   30   48 1
    53   30   49 1
    54   30   50 1
@<TRIPOS>PROPERTY_DATA
  Total_Score	| 7.6639
  Crash		| -1.2493
  Polar		| 1.9582
  FragIndex	| 1
  FragRMSD	| 0.895

