@<TRIPOS>MOLECULE
BindingDB_6038
 49 52 0 0 0
SMALL
NO_CHARGES


@<TRIPOS>ATOM
1    C        79.8288   59.5656   14.8906  C     
2    C        79.7528   58.5007   15.7239  C     
3    C        80.5641   57.3357   15.5513  C     
4    C        81.4864   57.2510   14.4958  C     
5    N        78.8373   60.6730   15.3609  N     
6    C        78.7334   61.9136   14.9896  C     
7    O        79.4308   62.2733   13.7255  O     
8    N        77.8234   62.9135   15.3764  N     
9    N        77.8040   64.0196   14.6534  N     
10   C        76.6211   64.2924   13.9910  C     
11   C        78.8979   64.9841   14.7291  C     
12   C        80.8066   59.4848   13.7290  C     
13   C        81.6434   58.2588   13.5826  C     
14   C        81.1823   60.3108   12.7039  C     
15   O        80.5210   61.3412   13.0237  O     
16   C        82.3985   58.5193   12.4851  C     
17   C        82.1133   59.8233   11.9626  C     
18   C        82.7845   60.2440   10.8245  C     
19   N        83.2243   58.1927   11.5461  N     
20   N        83.4547   59.1462   10.6714  N     
21   C        82.6740   61.3701    9.9752  C     
22   C        83.1671   62.8885    7.8506  C     
23   C        82.2672   63.4097    8.7297  C     
24   C        82.1744   62.6878    9.8822  C     
25   S        83.5874   61.3496    8.5016  S     
26   C        83.6183   63.6565    6.7558  C     
27   O        83.0791   64.8793    6.5064  O     
28   O        84.6915   63.2410    6.0470  O     
29   C        85.2531   63.8190    4.8485  C     
30   C        84.8245   62.9512    3.6516  C     
31   H        79.1005   58.4663   16.5793  H     
32   H        80.5189   56.5007   16.1803  H     
33   H        82.1075   56.4486   14.3394  H     
34   H        78.2835   60.3403   16.1879  H     
35   H        77.0508   62.4736   15.7835  H     
36   H        76.4704   63.5715   13.1856  H     
37   H        76.6122   65.2774   13.5429  H     
38   H        75.7880   64.2189   14.7076  H     
39   H        79.2419   65.0405   15.7562  H     
40   H        78.5718   65.9732   14.4041  H     
41   H        79.7816   64.8071   14.1269  H     
42   H        84.0209   59.0023    9.9258  H     
43   H        81.8799   64.3591    8.6810  H     
44   H        81.9141   63.3600   10.5450  H     
45   H        85.0226   64.8643    4.6116  H     
46   H        86.3259   63.8065    4.9704  H     
47   H        85.2953   61.9769    3.7337  H     
48   H        85.1325   63.4062    2.7092  H     
49   H        83.7391   62.8240    3.6622  H     
@<TRIPOS>BOND
     1    1    2 1
     2    1    5 1
     3    1   12 2
     4    2    3 2
     5    3    4 1
     6    4   13 2
     7    5    6 am
     8    6    7 2
     9    6    8 am
    10    8    9 1
    11    9   10 1
    12    9   11 1
    13   12   13 1
    14   12   14 1
    15   13   16 1
    16   14   15 2
    17   14   17 1
    18   16   17 1
    19   16   19 2
    20   17   18 2
    21   18   20 1
    22   18   21 1
    23   19   20 1
    24   21   24 2
    25   21   25 1
    26   22   23 2
    27   22   25 1
    28   22   26 1
    29   23   24 1
    30   26   27 2
    31   26   28 1
    32   28   29 1
    33   29   30 1
    34    2   31 1
    35    3   32 1
    36    4   33 1
    37    5   34 1
    38    8   35 1
    39   10   36 1
    40   10   37 1
    41   10   38 1
    42   11   39 1
    43   11   40 1
    44   11   41 1
    45   20   42 1
    46   23   43 1
    47   24   44 1
    48   29   45 1
    49   29   46 1
    50   30   47 1
    51   30   48 1
    52   30   49 1
@<TRIPOS>PROPERTY_DATA
  Total_Score	| 6.8340
  Crash		| -0.8254
  Polar		| 2.4244
  FragIndex	| 1
  FragRMSD	| 1.146

