@<TRIPOS>MOLECULE
BindingDB_5645
 32 35 0 0 0
SMALL
NO_CHARGES


@<TRIPOS>ATOM
1    C        79.4482   59.2998   14.4091  C     
2    C        79.3283   58.1664   15.2469  C     
3    C        80.3306   57.1779   15.2561  C     
4    C        81.4285   57.2655   14.3808  C     
5    N        78.5030   60.2742   14.5021  N     
6    C        78.7790   61.4309   15.0645  C     
7    O        79.8976   61.5901   15.5215  O     
8    C        81.5443   58.4108   13.5777  C     
9    C        80.6282   59.4695   13.6392  C     
10   C        81.0749   60.5142   12.8255  C     
11   O        81.0857   61.7007   13.1852  O     
12   C        82.4304   58.7272   12.5763  C     
13   C        82.0894   59.9592   12.0709  C     
14   C        82.8804   60.0979   10.9333  C     
15   N        83.4224   58.1788   11.8623  N     
16   N        83.6946   59.0183   10.9093  N     
17   N        77.8823   62.3755   15.2016  N     
18   C        82.7610   61.0289    9.8879  C     
19   C        82.0197   62.7797    8.1620  C     
20   C        83.2171   62.1353    7.8484  C     
21   C        83.6182   61.1705    8.7883  C     
22   S        81.4559   62.1260    9.6454  S     
23   H        78.5315   58.0787   15.8808  H     
24   H        80.2516   56.3843   15.8927  H     
25   H        82.1233   56.5191   14.3315  H     
26   H        77.5733   60.0601   14.3260  H     
27   H        84.3359   58.8401   10.2035  H     
28   H        78.1148   63.2045   15.6484  H     
29   H        76.9900   62.2632   14.8409  H     
30   H        81.5523   63.5017    7.6132  H     
31   H        83.7503   62.3402    6.9998  H     
32   H        84.4684   60.6159    8.6698  H     
@<TRIPOS>BOND
     1    1    2 1
     2    1    5 1
     3    1    9 2
     4    2    3 2
     5    3    4 1
     6    4    8 2
     7    5    6 am
     8    6    7 2
     9    6   17 am
    10    8    9 1
    11    8   12 1
    12    9   10 1
    13   10   11 2
    14   10   13 1
    15   12   13 1
    16   12   15 2
    17   13   14 2
    18   14   16 1
    19   14   18 1
    20   15   16 1
    21   18   21 2
    22   18   22 1
    23   19   20 2
    24   19   22 1
    25   20   21 1
    26    2   23 1
    27    3   24 1
    28    4   25 1
    29    5   26 1
    30   16   27 1
    31   17   28 1
    32   17   29 1
    33   19   30 1
    34   20   31 1
    35   21   32 1
@<TRIPOS>PROPERTY_DATA
  Total_Score	| 5.0273
  Crash		| -0.5967
  Polar		| 1.4192
  FragIndex	| 1
  FragRMSD	| 0.645

