@<TRIPOS>MOLECULE
BindingDB_6052
 64 68 0 0 0
SMALL
NO_CHARGES


@<TRIPOS>ATOM
1    C        79.7979   59.8172   14.6470  C     
2    C        79.6685   58.7096   15.5275  C     
3    C        80.4784   57.5606   15.3855  C     
4    C        81.4417   57.4856   14.3606  C     
5    N        79.0446   60.9536   14.7342  N     
6    C        78.6184   61.5775   15.8250  C     
7    O        78.8988   61.1839   16.9478  O     
8    C        80.7448   59.7107   13.5976  C     
9    C        81.5621   58.5737   13.4800  C     
10   C        81.0726   60.5808   12.5781  C     
11   O        80.5861   61.6872   12.3884  O     
12   C        82.3803   58.7885   12.3822  C     
13   C        82.0620   60.0066   11.8321  C     
14   C        82.8880   60.1472   10.7238  C     
15   N        83.3386   58.1995   11.6500  N     
16   N        83.6417   59.0270   10.6975  N     
17   N        78.0095   62.7531   15.7681  N     
18   C        77.0289   65.7167   14.3402  C     
19   C        75.5034   63.9623   13.7296  C     
20   C        76.6398   62.9063   13.8454  C     
21   C        78.1770   64.6794   14.4874  C     
22   N        77.6587   63.3902   14.7083  N     
23   C        82.9537   61.1833    9.7663  C     
24   C        82.6718   63.2982    8.2777  C     
25   C        83.8680   61.2956    8.7100  C     
26   S        81.9280   62.5610    9.6519  S     
27   O        76.0446   65.2551   13.3915  O     
28   C        83.7161   62.4394    7.9056  C     
29   C        82.3577   64.5393    7.7342  C     
30   O        83.0259   64.9725    6.7990  O     
31   N        81.4123   65.2802    8.2912  N     
32   C        81.1894   66.6746    8.0637  C     
33   C        79.9588   67.2141    8.8500  C     
34   N        78.6813   67.0448    8.0722  N     
35   C        77.5305   66.5864    8.8962  C     
36   C        78.3255   68.2412    7.2476  C     
37   H        78.9584   58.7231   16.2607  H     
38   H        80.3581   56.7705   16.0228  H     
39   H        82.0262   56.6550   14.2521  H     
40   H        78.9090   61.4299   13.9019  H     
41   H        84.2968   58.8288   10.0128  H     
42   H        77.9216   63.2370   16.6134  H     
43   H        76.5549   65.8997   15.3068  H     
44   H        77.4359   66.6618   13.9831  H     
45   H        74.8051   63.6624   12.9424  H     
46   H        74.9405   64.0260   14.6679  H     
47   H        76.2088   61.9638   14.1962  H     
48   H        77.0686   62.7391   12.8541  H     
49   H        78.7600   64.6672   13.5690  H     
50   H        78.8532   65.0041   15.2877  H     
51   H        84.6080   60.6100    8.5380  H     
52   H        84.3446   62.6381    7.1273  H     
53   H        80.8958   64.8606    8.9861  H     
54   H        82.0847   67.2286    8.3796  H     
55   H        81.0577   66.8546    6.9867  H     
56   H        79.9279   66.7013    9.8193  H     
57   H        80.1165   68.2688    9.0971  H     
58   H        78.8540   66.2874    7.4089  H     
59   H        77.7547   65.6208    9.3515  H     
60   H        76.6385   66.4433    8.2768  H     
61   H        77.3010   67.3072    9.6851  H     
62   H        78.0170   69.0770    7.8808  H     
63   H        77.5019   67.9947    6.5715  H     
64   H        79.1726   68.5650    6.6358  H     
@<TRIPOS>BOND
     1    1    2 1
     2    1    5 1
     3    1    8 2
     4    2    3 2
     5    3    4 1
     6    4    9 2
     7    5    6 am
     8    6    7 2
     9    6   17 am
    10    8    9 1
    11    8   10 1
    12    9   12 1
    13   10   11 2
    14   10   13 1
    15   12   13 1
    16   12   15 2
    17   13   14 2
    18   14   16 1
    19   14   23 1
    20   15   16 1
    21   17   22 1
    22   18   21 1
    23   18   27 1
    24   19   20 1
    25   19   27 1
    26   20   22 1
    27   21   22 1
    28   23   25 2
    29   23   26 1
    30   24   26 1
    31   24   28 2
    32   24   29 1
    33   25   28 1
    34   29   30 2
    35   29   31 am
    36   31   32 1
    37   32   33 1
    38   33   34 1
    39   34   35 1
    40   34   36 1
    41    2   37 1
    42    3   38 1
    43    4   39 1
    44    5   40 1
    45   16   41 1
    46   17   42 1
    47   18   43 1
    48   18   44 1
    49   19   45 1
    50   19   46 1
    51   20   47 1
    52   20   48 1
    53   21   49 1
    54   21   50 1
    55   25   51 1
    56   28   52 1
    57   31   53 1
    58   32   54 1
    59   32   55 1
    60   33   56 1
    61   33   57 1
    62   34   58 1
    63   35   59 1
    64   35   60 1
    65   35   61 1
    66   36   62 1
    67   36   63 1
    68   36   64 1
@<TRIPOS>PROPERTY_DATA
  Total_Score	| 10.2365
  Crash		| -1.0826
  Polar		| 3.5631
  FragIndex	| 1
  FragRMSD	| 0.304

