@<TRIPOS>MOLECULE
BindingDB_6036
 44 47 0 0 0
SMALL
NO_CHARGES


@<TRIPOS>ATOM
1    C        79.5050   59.4135   14.4825  C     
2    C        79.3226   58.3040   15.3457  C     
3    C        80.2609   57.2504   15.3838  C     
4    C        81.3722   57.2551   14.5190  C     
5    N        78.5434   60.3678   14.4474  N     
6    C        78.7022   61.6558   14.7136  C     
7    O        79.7648   62.0533   15.1901  O     
8    N        77.6556   62.4424   14.5471  N     
9    N        77.5255   63.7302   14.6733  N     
10   C        78.5929   64.6337   14.8288  C     
11   C        76.1877   64.1907   14.5962  C     
12   C        80.6228   59.4132   13.6212  C     
13   C        81.5171   58.3314   13.6267  C     
14   C        81.0168   60.2912   12.6331  C     
15   O        80.4678   61.3321   12.3036  O     
16   C        82.4224   58.5560   12.5997  C     
17   C        82.1052   59.7507   11.9919  C     
18   C        83.0205   59.8907   10.9502  C     
19   N        83.4316   57.9639   11.9430  N     
20   N        83.7837   58.7766   10.9883  N     
21   C        83.1575   60.9346   10.0140  C     
22   C        83.0140   63.0602    8.5596  C     
23   C        84.1571   62.2721    8.3449  C     
24   C        84.2283   61.1134    9.1248  C     
25   S        82.1065   62.2844    9.7976  S     
26   O        82.6880   64.2825    8.0484  O     
27   C        82.4074   64.2716    6.6391  C     
28   H        78.5006   58.2623   15.9501  H     
29   H        80.1260   56.4698   16.0314  H     
30   H        82.0331   56.4710   14.5163  H     
31   H        77.6463   60.0814   14.1917  H     
32   H        76.8443   61.9682   14.2772  H     
33   H        79.1206   64.4324   15.7641  H     
34   H        78.2907   65.6843   14.8452  H     
35   H        79.2893   64.5146   13.9955  H     
36   H        75.7714   63.9801   13.6064  H     
37   H        76.0820   65.2656   14.7677  H     
38   H        75.5745   63.6842   15.3459  H     
39   H        84.4627   58.5660   10.3340  H     
40   H        84.8924   62.5306    7.6804  H     
41   H        85.0135   60.4594    9.0553  H     
42   H        83.2931   64.0216    6.0492  H     
43   H        82.0759   65.2692    6.3477  H     
44   H        81.6018   63.5787    6.3870  H     
@<TRIPOS>BOND
     1    1    2 1
     2    1    5 1
     3    1   12 2
     4    2    3 2
     5    3    4 1
     6    4   13 2
     7    5    6 am
     8    6    7 2
     9    6    8 am
    10    8    9 1
    11    9   10 1
    12    9   11 1
    13   12   13 1
    14   12   14 1
    15   13   16 1
    16   14   15 2
    17   14   17 1
    18   16   17 1
    19   16   19 2
    20   17   18 2
    21   18   20 1
    22   18   21 1
    23   19   20 1
    24   21   24 2
    25   21   25 1
    26   22   23 2
    27   22   25 1
    28   22   26 1
    29   23   24 1
    30   26   27 1
    31    2   28 1
    32    3   29 1
    33    4   30 1
    34    5   31 1
    35    8   32 1
    36   10   33 1
    37   10   34 1
    38   10   35 1
    39   11   36 1
    40   11   37 1
    41   11   38 1
    42   20   39 1
    43   23   40 1
    44   24   41 1
    45   27   42 1
    46   27   43 1
    47   27   44 1
@<TRIPOS>PROPERTY_DATA
  Total_Score	| 6.6188
  Crash		| -0.9816
  Polar		| 1.2928
  FragIndex	| 1
  FragRMSD	| 0.849

