@<TRIPOS>MOLECULE
BindingDB_6044
 48 52 0 0 0
SMALL
NO_CHARGES


@<TRIPOS>ATOM
1    C        79.6921   59.6398   14.6515  C     
2    C        79.4722   58.5438   15.5208  C     
3    C        80.3449   57.4278   15.5133  C     
4    C        81.4368   57.3742   14.6210  C     
5    N        78.7559   60.6313   14.5175  N     
6    C        78.3550   61.1643   13.3631  C     
7    O        78.7411   60.7198   12.2874  O     
8    C        80.8679   59.6242   13.8583  C     
9    C        81.6752   58.4831   13.7928  C     
10   C        81.3557   60.5673   12.9788  C     
11   O        81.0041   61.7403   12.9619  O     
12   C        82.5413   58.6952   12.7305  C     
13   C        82.2988   59.9449   12.2091  C     
14   C        83.0664   60.0246   11.0542  C     
15   N        83.4229   58.0463   11.9571  N     
16   N        83.7457   58.8582   10.9950  N     
17   C        83.0375   60.9667   10.0080  C     
18   C        82.4072   62.7067    8.2116  C     
19   C        83.9090   61.0258    8.9095  C     
20   S        81.8069   62.1383    9.7213  S     
21   C        81.7622   63.7211    7.3685  C     
22   N        77.6722   62.2935   13.2921  N     
23   C        77.2423   65.5342   14.0796  C     
24   C        75.5778   64.2781   15.2893  C     
25   C        76.3929   62.9566   15.1469  C     
26   C        78.2070   64.3255   14.2648  C     
27   N        77.4903   63.1099   14.2672  N     
28   O        75.8471   65.1786   14.1964  O     
29   C        83.5693   61.9783    7.9332  C     
30   H        78.6364   58.5206   16.1043  H     
31   H        80.1541   56.6249   16.1189  H     
32   H        82.0243   56.5396   14.5568  H     
33   H        78.3328   60.9519   15.3263  H     
34   H        84.3096   58.6037   10.2496  H     
35   H        84.7188   60.4076    8.8057  H     
36   H        80.7818   63.3574    7.0589  H     
37   H        82.3576   63.9252    6.4764  H     
38   H        81.6421   64.6463    7.9340  H     
39   H        77.4905   62.6335   12.3996  H     
40   H        77.4776   66.3104   14.8133  H     
41   H        77.3798   65.9654   13.0859  H     
42   H        74.5064   64.0675   15.3001  H     
43   H        75.8254   64.7697   16.2363  H     
44   H        76.7625   62.6515   16.1309  H     
45   H        75.7256   62.1648   14.7945  H     
46   H        78.9793   64.3535   13.4858  H     
47   H        78.7230   64.4165   15.2262  H     
48   H        84.1157   62.1060    7.0783  H     
@<TRIPOS>BOND
     1    1    2 1
     2    1    5 1
     3    1    8 2
     4    2    3 2
     5    3    4 1
     6    4    9 2
     7    5    6 am
     8    6    7 2
     9    6   22 am
    10    8    9 1
    11    8   10 1
    12    9   12 1
    13   10   11 2
    14   10   13 1
    15   12   13 1
    16   12   15 2
    17   13   14 2
    18   14   16 1
    19   14   17 1
    20   15   16 1
    21   17   19 2
    22   17   20 1
    23   18   20 1
    24   18   21 1
    25   18   29 2
    26   19   29 1
    27   22   27 1
    28   23   26 1
    29   23   28 1
    30   24   25 1
    31   24   28 1
    32   25   27 1
    33   26   27 1
    34    2   30 1
    35    3   31 1
    36    4   32 1
    37    5   33 1
    38   16   34 1
    39   19   35 1
    40   21   36 1
    41   21   37 1
    42   21   38 1
    43   22   39 1
    44   23   40 1
    45   23   41 1
    46   24   42 1
    47   24   43 1
    48   25   44 1
    49   25   45 1
    50   26   46 1
    51   26   47 1
    52   29   48 1
@<TRIPOS>PROPERTY_DATA
  Total_Score	| 7.5439
  Crash		| -1.6440
  Polar		| 2.2361
  FragIndex	| 1
  FragRMSD	| 1.255

