@<TRIPOS>MOLECULE
BindingDB_6035
 40 43 0 0 0
SMALL
NO_CHARGES


@<TRIPOS>ATOM
1    C        80.1576   59.6762   15.2092  C     
2    C        79.9884   58.4683   15.9342  C     
3    C        80.5846   57.2624   15.5144  C     
4    C        81.4023   57.2361   14.3737  C     
5    N        79.5851   60.7699   15.7973  N     
6    C        78.8345   61.7427   15.3087  C     
7    O        78.4301   62.5318   16.1508  O     
8    N        78.5132   61.8563   14.0256  N     
9    N        77.8519   62.7707   13.3812  N     
10   C        76.7265   63.4574   13.8934  C     
11   C        78.3554   63.0567   12.0979  C     
12   C        80.9731   59.6429   14.0406  C     
13   C        81.5758   58.4296   13.6601  C     
14   C        81.4121   60.6039   13.1397  C     
15   O        81.2932   61.8140   13.2547  O     
16   C        82.3491   58.6741   12.5447  C     
17   C        82.2279   59.9998   12.2131  C     
18   C        83.0168   60.1551   11.0745  C     
19   N        83.1741   58.0499   11.6927  N     
20   N        83.5688   58.9451   10.8399  N     
21   C        83.2074   61.2693   10.2397  C     
22   C        83.9745   62.9434    8.4382  C     
23   C        82.8390   63.3360    9.1475  C     
24   C        82.4173   62.4209   10.1285  C     
25   S        84.4545   61.4160    9.0587  S     
26   H        79.4203   58.4533   16.7872  H     
27   H        80.4342   56.4060   16.0504  H     
28   H        81.8674   56.3737   14.0803  H     
29   H        79.6438   60.7728   16.7677  H     
30   H        78.8784   61.1542   13.4650  H     
31   H        75.9706   62.7357   14.2125  H     
32   H        76.2481   64.1243   13.1698  H     
33   H        77.0239   64.0684   14.7488  H     
34   H        79.3808   63.4236   12.1762  H     
35   H        77.7863   63.8177   11.5587  H     
36   H        78.3623   62.1509   11.4871  H     
37   H        84.1614   58.7512   10.0976  H     
38   H        84.4332   63.4605    7.6863  H     
39   H        82.3483   64.2132    8.9618  H     
40   H        81.5865   62.5855   10.6991  H     
@<TRIPOS>BOND
     1    1    2 1
     2    1    5 1
     3    1   12 2
     4    2    3 2
     5    3    4 1
     6    4   13 2
     7    5    6 am
     8    6    7 2
     9    6    8 am
    10    8    9 1
    11    9   10 1
    12    9   11 1
    13   12   13 1
    14   12   14 1
    15   13   16 1
    16   14   15 2
    17   14   17 1
    18   16   17 1
    19   16   19 2
    20   17   18 2
    21   18   20 1
    22   18   21 1
    23   19   20 1
    24   21   24 2
    25   21   25 1
    26   22   23 2
    27   22   25 1
    28   23   24 1
    29    2   26 1
    30    3   27 1
    31    4   28 1
    32    5   29 1
    33    8   30 1
    34   10   31 1
    35   10   32 1
    36   10   33 1
    37   11   34 1
    38   11   35 1
    39   11   36 1
    40   20   37 1
    41   22   38 1
    42   23   39 1
    43   24   40 1
@<TRIPOS>PROPERTY_DATA
  Total_Score	| 5.2933
  Crash		| -0.8603
  Polar		| 2.0559
  FragIndex	| 1
  FragRMSD	| 1.419

