@<TRIPOS>MOLECULE
BindingDB_6045
 54 58 0 0 0
SMALL
NO_CHARGES


@<TRIPOS>ATOM
1    C        80.1530   59.8629   15.1383  C     
2    C        80.0795   58.7004   15.9430  C     
3    C        80.7133   57.4987   15.5594  C     
4    C        81.4703   57.4415   14.3757  C     
5    N        79.4813   60.9681   15.5863  N     
6    C        78.7385   61.8030   14.8750  C     
7    O        78.5373   61.6185   13.6778  O     
8    C        80.9433   59.8069   13.9625  C     
9    C        81.5762   58.6046   13.5952  C     
10   C        81.2897   60.7614   13.0164  C     
11   O        81.1566   61.9731   13.1378  O     
12   C        82.2581   58.8448   12.4139  C     
13   C        82.0596   60.1625   12.0574  C     
14   C        82.7366   60.3369   10.8510  C     
15   N        83.0239   58.2363   11.4972  N     
16   N        83.2988   59.1332   10.5897  N     
17   C        82.8073   61.4512    9.9909  C     
18   C        83.2795   63.1237    8.0742  C     
19   C        82.0843   62.6494   10.0634  C     
20   S        83.7850   61.5547    8.5791  S     
21   N        78.1763   62.8174   15.5133  N     
22   C        75.4063   63.9963   13.7647  C     
23   C        77.4173   64.9533   12.8456  C     
24   C        78.1297   64.7726   14.2117  C     
25   C        76.0990   63.8060   15.1377  C     
26   N        77.4925   63.7534   14.9591  N     
27   O        75.9896   65.0917   13.0315  O     
28   C        82.3455   63.5555    9.0230  C     
29   C        83.7229   63.8116    6.9370  C     
30   O        83.1660   64.9997    6.5884  O     
31   O        84.7479   63.2950    6.2079  O     
32   C        85.3745   63.8577    5.0421  C     
33   C        85.1033   62.9596    3.8185  C     
34   H        79.5392   58.7139   16.8118  H     
35   H        80.6217   56.6655   16.1391  H     
36   H        81.9404   56.5767   14.0933  H     
37   H        79.4609   61.0939   16.5467  H     
38   H        83.8230   58.9308    9.7984  H     
39   H        81.4050   62.8540   10.7988  H     
40   H        78.2474   62.8362   16.4836  H     
41   H        75.4887   63.0736   13.1759  H     
42   H        74.3469   64.2071   13.9121  H     
43   H        77.7905   65.8607   12.3586  H     
44   H        77.6364   64.1043   12.1898  H     
45   H        79.1882   64.5635   14.0365  H     
46   H        78.0664   65.7109   14.7691  H     
47   H        75.8414   64.6375   15.7934  H     
48   H        75.7150   62.8877   15.5896  H     
49   H        81.8758   64.4637    8.9661  H     
50   H        85.0150   64.8697    4.8352  H     
51   H        86.4535   63.9172    5.2156  H     
52   H        85.6118   62.0030    3.9446  H     
53   H        85.4700   63.4389    2.9062  H     
54   H        84.0316   62.7783    3.7150  H     
@<TRIPOS>BOND
     1    1    2 1
     2    1    5 1
     3    1    8 2
     4    2    3 2
     5    3    4 1
     6    4    9 2
     7    5    6 am
     8    6    7 2
     9    6   21 am
    10    8    9 1
    11    8   10 1
    12    9   12 1
    13   10   11 2
    14   10   13 1
    15   12   13 1
    16   12   15 2
    17   13   14 2
    18   14   16 1
    19   14   17 1
    20   15   16 1
    21   17   19 2
    22   17   20 1
    23   18   20 1
    24   18   28 2
    25   18   29 1
    26   19   28 1
    27   21   26 1
    28   22   25 1
    29   22   27 1
    30   23   24 1
    31   23   27 1
    32   24   26 1
    33   25   26 1
    34   29   30 2
    35   29   31 1
    36   31   32 1
    37   32   33 1
    38    2   34 1
    39    3   35 1
    40    4   36 1
    41    5   37 1
    42   16   38 1
    43   19   39 1
    44   21   40 1
    45   22   41 1
    46   22   42 1
    47   23   43 1
    48   23   44 1
    49   24   45 1
    50   24   46 1
    51   25   47 1
    52   25   48 1
    53   28   49 1
    54   32   50 1
    55   32   51 1
    56   33   52 1
    57   33   53 1
    58   33   54 1
@<TRIPOS>PROPERTY_DATA
  Total_Score	| 7.7616
  Crash		| -1.0907
  Polar		| 2.5019
  FragIndex	| 1
  FragRMSD	| 1.196

