@<TRIPOS>MOLECULE
BindingDB_6037
 43 46 0 0 0
SMALL
NO_CHARGES


@<TRIPOS>ATOM
1    C        79.8918   59.4981   14.9364  C     
2    C        79.7788   58.2839   15.6565  C     
3    C        80.6103   57.1799   15.3619  C     
4    C        81.5586   57.2532   14.3216  C     
5    N        78.9747   60.4844   15.1947  N     
6    C        78.9095   61.6948   14.6530  C     
7    O        79.6407   62.0253   13.7249  O     
8    N        78.0074   62.5344   15.1359  N     
9    N        77.9433   63.8103   14.9452  N     
10   C        79.0613   64.6256   15.2254  C     
11   C        76.6703   64.3590   14.6848  C     
12   C        80.9268   59.5905   13.9679  C     
13   C        81.6950   58.4671   13.6308  C     
14   C        81.3325   60.6329   13.1666  C     
15   O        81.1413   61.8102   13.4374  O     
16   C        82.4210   58.8090   12.4999  C     
17   C        82.1512   60.1212   12.1964  C     
18   C        82.7540   60.3553   10.9648  C     
19   N        83.1679   58.2680   11.5287  N     
20   N        83.3771   59.2010   10.6460  N     
21   C        82.5826   61.4443   10.0888  C     
22   C        82.4454   63.0103    8.0358  C     
23   C        81.6914   63.4213    9.1376  C     
24   C        81.7606   62.5669   10.2493  C     
25   S        83.2188   61.5472    8.4923  S     
26   C        82.5150   63.6735    6.7252  C     
27   H        79.0630   58.1802   16.3794  H     
28   H        80.5025   56.3077   15.8858  H     
29   H        82.1268   56.4428   14.0673  H     
30   H        78.2666   60.2564   15.8183  H     
31   H        77.3222   62.1442   15.6987  H     
32   H        79.4078   64.4325   16.2473  H     
33   H        78.8466   65.6946   15.1468  H     
34   H        79.8839   64.4135   14.5308  H     
35   H        76.3359   64.0073   13.7076  H     
36   H        76.6560   65.4519   14.6540  H     
37   H        75.9471   64.0479   15.4458  H     
38   H        83.8354   59.0429    9.8046  H     
39   H        81.1181   64.2629    9.1257  H     
40   H        81.2199   62.7533   11.0931  H     
41   H        81.5189   63.7012    6.2699  H     
42   H        83.1815   63.1242    6.0532  H     
43   H        82.8862   64.6993    6.8465  H     
@<TRIPOS>BOND
     1    1    2 1
     2    1    5 1
     3    1   12 2
     4    2    3 2
     5    3    4 1
     6    4   13 2
     7    5    6 am
     8    6    7 2
     9    6    8 am
    10    8    9 1
    11    9   10 1
    12    9   11 1
    13   12   13 1
    14   12   14 1
    15   13   16 1
    16   14   15 2
    17   14   17 1
    18   16   17 1
    19   16   19 2
    20   17   18 2
    21   18   20 1
    22   18   21 1
    23   19   20 1
    24   21   24 2
    25   21   25 1
    26   22   23 2
    27   22   25 1
    28   22   26 1
    29   23   24 1
    30    2   27 1
    31    3   28 1
    32    4   29 1
    33    5   30 1
    34    8   31 1
    35   10   32 1
    36   10   33 1
    37   10   34 1
    38   11   35 1
    39   11   36 1
    40   11   37 1
    41   20   38 1
    42   23   39 1
    43   24   40 1
    44   26   41 1
    45   26   42 1
    46   26   43 1
@<TRIPOS>PROPERTY_DATA
  Total_Score	| 7.2313
  Crash		| -0.5649
  Polar		| 1.8371
  FragIndex	| 1
  FragRMSD	| 1.171

