@<TRIPOS>MOLECULE
BindingDB_10874
 20 21 0 0 0
SMALL
NO_CHARGES


@<TRIPOS>ATOM
1    C        -2.3105    3.9438   14.8207  C     
2    C        -2.0842    5.1634   14.1448  C     
3    C        -3.1686    6.0052   13.8068  C     
4    C        -4.4873    5.6338   14.1384  C     
5    C        -3.6250    3.5723   15.1575  C     
6    C        -4.6898    4.4194   14.8121  C     
7    C        -5.3115    2.2991   16.0159  C     
8    O        -2.9510    7.1662   13.1461  O     
9    S        -6.1265    3.6684   15.3678  S     
10   N        -3.9830    2.4337   15.8073  N     
11   N        -7.7030    1.2832   17.0962  N     
12   O        -5.9328   -0.2987   15.8529  O     
13   S        -6.0777    0.9642   16.8087  S     
14   O        -5.3171    0.7159   18.1833  O     
15   H        -1.5257    3.3364   15.0637  H     
16   H        -1.1318    5.4324   13.8928  H     
17   H        -5.2794    6.2325   13.8979  H     
18   H        -3.0492    7.8618   13.8302  H     
19   H        -8.2566    0.6198   17.5367  H     
20   H        -8.0873    2.1302   16.8225  H     
@<TRIPOS>BOND
     1    1    2 2
     2    1    5 1
     3    2    3 1
     4    3    4 2
     5    3    8 1
     6    4    6 1
     7    5    6 2
     8    5   10 1
     9    6    9 1
    10    7    9 1
    11    7   10 2
    12    7   13 1
    13   11   13 am
    14   12   13 2
    15   13   14 2
    16    1   15 1
    17    2   16 1
    18    4   17 1
    19    8   18 1
    20   11   19 1
    21   11   20 1
@<TRIPOS>PROPERTY_DATA
  Total_Score	| 3.5859
  Crash		| -0.8048
  Polar		| 2.2224
  FragIndex	| 1
  FragRMSD	| 1.063

