@<TRIPOS>MOLECULE
BindingDB_10882
 26 27 0 0 0
SMALL
NO_CHARGES


@<TRIPOS>ATOM
1    C        -2.3210    3.8383   14.9550  C     
2    C        -2.0645    5.0777   14.3381  C     
3    C        -3.1101    5.9997   14.0781  C     
4    C        -4.4408    5.6293   14.3794  C     
5    O        -2.9260    7.2217   13.4919  O     
6    C        -1.8172    8.0524   13.8844  C     
7    C        -1.6393    8.2051   15.4138  C     
8    C        -3.6432    3.4901   15.2867  C     
9    C        -4.6886    4.3794   14.9912  C     
10   C        -5.3549    2.2323   16.1033  C     
11   S        -6.1475    3.6395   15.5069  S     
12   N        -4.0250    2.3338   15.8839  N     
13   N        -7.7845    1.0908   17.0204  N     
14   O        -5.8823   -0.3813   15.9809  O     
15   S        -6.1269    0.8968   16.8919  S     
16   O        -5.4821    0.6673   18.3254  O     
17   H        -1.5526    3.1978   15.1506  H     
18   H        -1.1110    5.3070   14.0778  H     
19   H        -5.2265    6.2573   14.1684  H     
20   H        -0.8810    7.6909   13.4451  H     
21   H        -1.9985    9.0474   13.4710  H     
22   H        -2.5958    8.4677   15.8756  H     
23   H        -0.8907    8.9706   15.6216  H     
24   H        -1.2892    7.2662   15.8481  H     
25   H        -8.3574    0.3145   17.1682  H     
26   H        -8.1822    1.9616   16.8506  H     
@<TRIPOS>BOND
     1    1    2 2
     2    1    8 1
     3    2    3 1
     4    3    4 2
     5    3    5 1
     6    4    9 1
     7    5    6 1
     8    6    7 1
     9    8    9 2
    10    8   12 1
    11    9   11 1
    12   10   11 1
    13   10   12 2
    14   10   15 1
    15   13   15 am
    16   14   15 2
    17   15   16 2
    18    1   17 1
    19    2   18 1
    20    4   19 1
    21    6   20 1
    22    6   21 1
    23    7   22 1
    24    7   23 1
    25    7   24 1
    26   13   25 1
    27   13   26 1
@<TRIPOS>PROPERTY_DATA
  Total_Score	| 4.8672
  Crash		| -0.9372
  Polar		| 2.0989
  FragIndex	| 1
  FragRMSD	| 0.963

