@<TRIPOS>MOLECULE
BindingDB_8046
 34 36 0 0 0
SMALL
NO_CHARGES


@<TRIPOS>ATOM
1    C         5.2988   45.6716    0.6632  C     
2    C         6.5721   47.5742    0.9246  C     
3    C         5.3565   48.1340    1.4011  C     
4    N         6.5002   46.2664    0.5516  N     
5    C         4.9993   44.2721    0.3394  C     
6    C         7.8824   48.2429    0.8313  C     
7    S         4.2172   46.8428    1.2974  S     
8    C         4.9851   49.4364    1.8501  C     
9    C         5.8091   50.5849    1.8302  C     
10   C         5.2694   51.8237    2.2264  C     
11   C         3.1793   50.8094    2.6601  C     
12   N         3.7020   49.6144    2.2710  N     
13   N         3.9754   51.9087    2.6226  N     
14   N         1.8721   50.9683    2.9800  N     
15   C         0.9453   49.9719    3.0137  C     
16   C         0.1767   47.7710    3.7728  C     
17   C         1.1290   48.8063    3.7929  C     
18   C        -0.2320   50.1053    2.2483  C     
19   C        -1.1826   49.0633    2.2122  C     
20   C        -0.9820   47.8986    2.9813  C     
21   F        -1.8689   46.9409    2.9611  F     
22   H         5.2609   44.0656   -0.6993  H     
23   H         3.9407   44.0588    0.4886  H     
24   H         5.5869   43.6307    0.9939  H     
25   H         7.8427   49.0374    0.0883  H     
26   H         8.6665   47.5424    0.5338  H     
27   H         8.1554   48.6540    1.8011  H     
28   H         6.7719   50.5516    1.5176  H     
29   H         5.8458   52.6650    2.1837  H     
30   H         1.5464   51.8824    3.0464  H     
31   H         0.3260   46.9322    4.3370  H     
32   H         1.9626   48.6975    4.3771  H     
33   H        -0.3847   50.9370    1.6747  H     
34   H        -2.0192   49.1535    1.6283  H     
@<TRIPOS>BOND
     1    1    4 2
     2    1    5 1
     3    1    7 1
     4    2    3 2
     5    2    4 1
     6    2    6 1
     7    3    7 1
     8    3    8 1
     9    8    9 1
    10    8   12 2
    11    9   10 2
    12   10   13 1
    13   11   12 1
    14   11   13 2
    15   11   14 1
    16   14   15 1
    17   15   17 1
    18   15   18 2
    19   16   17 2
    20   16   20 1
    21   18   19 1
    22   19   20 2
    23   20   21 1
    24    5   22 1
    25    5   23 1
    26    5   24 1
    27    6   25 1
    28    6   26 1
    29    6   27 1
    30    9   28 1
    31   10   29 1
    32   14   30 1
    33   16   31 1
    34   17   32 1
    35   18   33 1
    36   19   34 1
@<TRIPOS>PROPERTY_DATA
  Total_Score	| 7.0812
  Crash		| -0.9876
  Polar		| 2.2938
  FragIndex	| 1
  FragRMSD	| 0.240

