@<TRIPOS>MOLECULE
BindingDB_8043
 34 36 0 0 0
SMALL
NO_CHARGES


@<TRIPOS>ATOM
1    C         5.2686   45.5649    1.1468  C     
2    C         6.5001   47.5116    1.0000  C     
3    C         5.3407   48.0993    1.5623  C     
4    N         6.4230   46.1643    0.7996  N     
5    C         4.9553   44.1354    1.0528  C     
6    C         7.7473   48.2003    0.6220  C     
7    S         4.2330   46.7923    1.7559  S     
8    C         4.9810   49.4286    1.9285  C     
9    C         5.8273   50.5626    1.9014  C     
10   C         5.2959   51.8126    2.2642  C     
11   C         3.1825   50.8432    2.6915  C     
12   N         3.6945   49.6352    2.3317  N     
13   N         4.0026   51.9207    2.6494  N     
14   N         1.8791   51.0098    3.0211  N     
15   C         0.9411   50.0264    3.0246  C     
16   C         0.0936   47.8485    3.7604  C     
17   C         1.0875   48.8436    3.7848  C     
18   C        -0.2282   50.2030    2.2511  C     
19   C        -1.2087   49.1911    2.2002  C     
20   C        -1.0519   48.0128    2.9556  C     
21   Cl       -2.2452   46.8132    2.9015  Cl    
22   H         5.0500   43.7964    0.0206  H     
23   H         3.9400   43.9398    1.3985  H     
24   H         5.6482   43.5794    1.6805  H     
25   H         7.5347   48.9763   -0.1147  H     
26   H         8.4638   47.5038    0.1846  H     
27   H         8.2083   48.6426    1.5051  H     
28   H         6.8034   50.5056    1.6258  H     
29   H         5.8870   52.6441    2.2276  H     
30   H         1.5606   51.9297    3.1104  H     
31   H         0.2073   46.9960    4.3146  H     
32   H         1.9106   48.7107    4.3770  H     
33   H        -0.3499   51.0502    1.6902  H     
34   H        -2.0295   49.3163    1.5985  H     
@<TRIPOS>BOND
     1    1    4 2
     2    1    5 1
     3    1    7 1
     4    2    3 2
     5    2    4 1
     6    2    6 1
     7    3    7 1
     8    3    8 1
     9    8    9 1
    10    8   12 2
    11    9   10 2
    12   10   13 1
    13   11   12 1
    14   11   13 2
    15   11   14 1
    16   14   15 1
    17   15   17 1
    18   15   18 2
    19   16   17 2
    20   16   20 1
    21   18   19 1
    22   19   20 2
    23   20   21 1
    24    5   22 1
    25    5   23 1
    26    5   24 1
    27    6   25 1
    28    6   26 1
    29    6   27 1
    30    9   28 1
    31   10   29 1
    32   14   30 1
    33   16   31 1
    34   17   32 1
    35   18   33 1
    36   19   34 1
@<TRIPOS>PROPERTY_DATA
  Total_Score	| 7.3780
  Crash		| -1.0961
  Polar		| 2.3762
  FragIndex	| 1
  FragRMSD	| 0.173

