@<TRIPOS>MOLECULE
BindingDB_8037
 24 25 0 0 0
SMALL
NO_CHARGES


@<TRIPOS>ATOM
1    C         5.2431   45.5868    1.0899  C     
2    C         6.4909   47.5172    0.9660  C     
3    C         5.3295   48.1174    1.5193  C     
4    N         6.4019   46.1744    0.7570  N     
5    C         4.9346   44.1614    0.9687  C     
6    C         7.7564   48.1868    0.6069  C     
7    S         4.2161   46.8152    1.7002  S     
8    C         4.9838   49.4513    1.8930  C     
9    C         5.8359   50.5774    1.8046  C     
10   C         5.3396   51.8423    2.1716  C     
11   C         3.2568   50.8901    2.7402  C     
12   N         3.7233   49.6700    2.3666  N     
13   N         4.0710   51.9690    2.6339  N     
14   N         2.0005   51.0250    3.1942  N     
15   H         5.0786   43.8352   -0.0653  H     
16   H         3.9041   43.9569    1.2643  H     
17   H         5.6052   43.5956    1.6181  H     
18   H         7.5663   48.9539   -0.1445  H     
19   H         8.4791   47.4802    0.1915  H     
20   H         8.2037   48.6361    1.4938  H     
21   H         6.7983   50.5124    1.4831  H     
22   H         5.9295   52.6696    2.0901  H     
23   H         1.6578   51.9003    3.4319  H     
24   H         1.4275   50.2457    3.2742  H     
@<TRIPOS>BOND
     1    1    4 2
     2    1    5 1
     3    1    7 1
     4    2    3 2
     5    2    4 1
     6    2    6 1
     7    3    7 1
     8    3    8 1
     9    8    9 1
    10    8   12 2
    11    9   10 2
    12   10   13 1
    13   11   12 1
    14   11   13 2
    15   11   14 1
    16    5   15 1
    17    5   16 1
    18    5   17 1
    19    6   18 1
    20    6   19 1
    21    6   20 1
    22    9   21 1
    23   10   22 1
    24   14   23 1
    25   14   24 1
@<TRIPOS>PROPERTY_DATA
  Total_Score	| 5.5627
  Crash		| -0.7518
  Polar		| 2.3089
  FragIndex	| 1
  FragRMSD	| 0.168

