@<TRIPOS>MOLECULE
BindingDB_7755
 46 50 0 0 0
SMALL
NO_CHARGES


@<TRIPOS>ATOM
1    C       -15.8300  206.7936  109.9696  C     
2    C       -13.8161  206.9196  111.3879  C     
3    C       -12.4944  207.2905  111.1768  C     
4    C       -14.4568  207.0484  110.1500  C     
5    N       -13.5553  207.4535  109.2572  N     
6    C       -12.3931  207.5894  109.8517  C     
7    O       -11.4212  208.0182  109.2467  O     
8    N       -10.2729  207.7898  111.8325  N     
9    C        -9.2997  208.2182  112.6843  C     
10   C        -7.1687  209.2577  114.2846  C     
11   C        -8.4187  208.9480  114.8626  C     
12   C        -9.4658  208.4253  114.0758  C     
13   C        -8.0458  208.5382  112.1140  C     
14   C        -6.9955  209.0538  112.9011  C     
15   O        -4.4594  209.9406  114.5782  O     
16   S        -5.9027  209.9676  115.2415  S     
17   O        -6.3271  211.4963  115.3124  O     
18   C       -16.5814  206.3316  111.0685  C     
19   C       -11.5280  207.4109  112.1086  C     
20   N        -5.8221  209.3387  116.7988  N     
21   C       -15.9489  206.1836  112.3178  C     
22   C       -15.7121  205.7511  114.4606  C     
23   C       -14.5904  206.4863  112.4943  C     
24   S       -14.1060  206.2481  114.1441  S     
25   N       -16.5397  205.7593  113.4420  N     
26   C        -5.9514  210.0818  117.9084  C     
27   C        -5.2154  211.7965  119.4672  C     
28   C        -4.9917  211.0374  118.2999  C     
29   C        -7.3035  210.6060  119.7958  C     
30   C        -6.3904  211.5889  120.2176  C     
31   N        -7.0462  209.8927  118.6774  N     
32   H       -16.2739  206.9389  109.0586  H     
33   H       -13.7303  207.6390  108.3221  H     
34   H       -10.0220  207.7861  110.8979  H     
35   H        -8.5930  209.1330  115.8524  H     
36   H       -10.3601  208.2398  114.5285  H     
37   H        -7.8901  208.4169  111.1106  H     
38   H        -6.1157  209.3110  112.4486  H     
39   H       -17.5759  206.1170  110.9580  H     
40   H       -11.7634  207.2227  113.0481  H     
41   H        -5.9404  208.3600  116.8906  H     
42   H       -16.0015  205.4761  115.3675  H     
43   H        -4.5271  212.4902  119.7696  H     
44   H        -4.1310  211.1746  117.7534  H     
45   H        -8.1574  210.4357  120.3284  H     
46   H        -6.5647  212.1444  121.0605  H     
@<TRIPOS>BOND
     1    1    4 2
     2    1   18 1
     3    2    3 1
     4    2    4 1
     5    2   23 2
     6    3    6 1
     7    3   19 2
     8    4    5 1
     9    5    6 1
    10    6    7 2
    11    8    9 1
    12    8   19 1
    13    9   12 2
    14    9   13 1
    15   10   11 2
    16   10   14 1
    17   10   16 1
    18   11   12 1
    19   13   14 2
    20   15   16 2
    21   16   17 2
    22   16   20 1
    23   18   21 2
    24   20   26 1
    25   21   23 1
    26   21   25 1
    27   22   24 1
    28   22   25 2
    29   23   24 1
    30   26   28 2
    31   26   31 1
    32   27   28 1
    33   27   30 2
    34   29   30 1
    35   29   31 2
    36    1   32 1
    37    5   33 1
    38    8   34 1
    39   11   35 1
    40   12   36 1
    41   13   37 1
    42   14   38 1
    43   18   39 1
    44   19   40 1
    45   20   41 1
    46   22   42 1
    47   27   43 1
    48   28   44 1
    49   29   45 1
    50   30   46 1
@<TRIPOS>PROPERTY_DATA
  Total_Score	| 11.0563
  Crash		| -0.4880
  Polar		| 4.6572
  FragIndex	| 1
  FragRMSD	| 0.093

