@<TRIPOS>MOLECULE
BindingDB_7756
 49 53 0 0 0
SMALL
NO_CHARGES


@<TRIPOS>ATOM
1    C       -16.0437  206.7723  109.9887  C     
2    C       -13.9572  206.8660  111.2960  C     
3    C       -12.6463  207.2367  111.0241  C     
4    C       -14.6612  207.0248  110.0973  C     
5    N       -13.7996  207.4559  109.1706  N     
6    C       -12.6107  207.5832  109.7113  C     
7    O       -11.6511  208.0003  109.0749  O     
8    N       -10.4053  207.7514  111.6209  N     
9    C        -9.4832  208.2464  112.4920  C     
10   C        -7.3791  209.1968  114.1751  C     
11   C        -7.1792  209.0356  112.7853  C     
12   C        -8.2145  208.5682  111.9522  C     
13   C        -9.6977  208.4803  113.8718  C     
14   C        -8.6697  208.9538  114.6963  C     
15   O        -6.0787  211.3614  115.1200  O     
16   S        -6.0934  209.7749  115.2145  S     
17   O        -6.5207  209.5085  116.7260  O     
18   C       -16.7403  206.3195  111.1282  C     
19   C       -11.6417  207.3167  111.9087  C     
20   N        -4.5213  209.1695  115.0293  N     
21   C       -16.0412  206.1522  112.3427  C     
22   C       -15.6782  205.7051  114.4672  C     
23   C       -14.6699  206.4304  112.4399  C     
24   S       -14.0899  206.1717  114.0527  S     
25   N       -16.5678  205.7297  113.5021  N     
26   C        -4.0442  208.9678  113.7779  C     
27   C        -3.8703  207.6482  111.7420  C     
28   C        -4.3133  207.7708  113.0719  C     
29   C        -2.8822  209.8581  111.8884  C     
30   C        -3.1637  208.7030  111.1369  C     
31   N        -3.3215  209.9453  113.1719  N     
32   C        -3.6302  209.1554  116.1510  C     
33   H       -16.5362  206.9203  109.1038  H     
34   H       -14.0128  207.6488  108.2438  H     
35   H       -10.1369  207.7160  110.6974  H     
36   H        -6.2872  209.2639  112.3554  H     
37   H        -8.0293  208.4586  110.9475  H     
38   H       -10.6122  208.3202  114.2954  H     
39   H        -8.8781  209.1264  115.6825  H     
40   H       -17.7411  206.1243  111.0741  H     
41   H       -11.8303  207.0380  112.8359  H     
42   H       -15.9098  205.4211  115.3874  H     
43   H        -4.0885  206.8045  111.2077  H     
44   H        -4.8476  207.0160  113.5124  H     
45   H        -2.3587  210.6333  111.4762  H     
46   H        -2.8640  208.6337  110.1610  H     
47   H        -3.5860  210.1480  116.6059  H     
48   H        -2.6090  208.8665  115.8781  H     
49   H        -3.9912  208.4435  116.8966  H     
@<TRIPOS>BOND
     1    1    4 2
     2    1   18 1
     3    2    3 1
     4    2    4 1
     5    2   23 2
     6    3    6 1
     7    3   19 2
     8    4    5 1
     9    5    6 1
    10    6    7 2
    11    8    9 1
    12    8   19 1
    13    9   12 2
    14    9   13 1
    15   10   11 2
    16   10   14 1
    17   10   16 1
    18   11   12 1
    19   13   14 2
    20   15   16 2
    21   16   17 2
    22   16   20 1
    23   18   21 2
    24   20   26 1
    25   20   32 1
    26   21   23 1
    27   21   25 1
    28   22   24 1
    29   22   25 2
    30   23   24 1
    31   26   28 2
    32   26   31 1
    33   27   28 1
    34   27   30 2
    35   29   30 1
    36   29   31 2
    37    1   33 1
    38    5   34 1
    39    8   35 1
    40   11   36 1
    41   12   37 1
    42   13   38 1
    43   14   39 1
    44   18   40 1
    45   19   41 1
    46   22   42 1
    47   27   43 1
    48   28   44 1
    49   29   45 1
    50   30   46 1
    51   32   47 1
    52   32   48 1
    53   32   49 1
@<TRIPOS>PROPERTY_DATA
  Total_Score	| 11.1650
  Crash		| -0.5509
  Polar		| 4.7443
  FragIndex	| 1
  FragRMSD	| 0.668

