@<TRIPOS>MOLECULE
BindingDB_91779
 55 59 0 0 0
SMALL
NO_CHARGES


@<TRIPOS>ATOM
1    S       -14.1022  206.2765  114.1330  S     
2    C       -14.5432  206.5476  112.4951  C     
3    C       -13.8250  207.0040  111.3672  C     
4    C       -14.5065  207.0757  110.1465  C     
5    N       -13.6331  207.4733  109.2214  N     
6    C       -12.4575  207.6472  109.7831  C     
7    O       -11.4923  208.0342  109.1399  O     
8    C       -12.5238  207.3977  111.1165  C     
9    C       -11.5455  207.5497  112.0332  C     
10   N       -10.2770  207.8507  111.7184  N     
11   C        -9.2755  208.2916  112.5320  C     
12   C        -9.4178  208.5872  113.9085  C     
13   C        -8.3364  209.0848  114.6574  C     
14   C        -7.0759  209.2793  114.0597  C     
15   S        -5.7772  209.9396  115.0172  S     
16   O        -4.3803  210.2125  114.2999  O     
17   O        -6.3036  211.4146  115.2873  O     
18   N        -5.6658  209.3288  116.5901  N     
19   C        -5.7579  208.0151  116.9589  C     
20   C        -6.7008  207.6839  117.9696  C     
21   O        -7.4763  208.6678  118.5385  O     
22   C        -8.8973  208.4409  118.4707  C     
23   C        -6.7884  206.3596  118.4541  C     
24   C        -5.9602  205.3553  117.9270  C     
25   C        -5.0155  205.6769  116.9418  C     
26   C        -4.9138  206.9953  116.4413  C     
27   O        -3.8875  207.3100  115.5881  O     
28   C        -3.9086  206.6281  114.3197  C     
29   C        -6.9174  208.9814  112.6912  C     
30   C        -8.0095  208.5009  111.9369  C     
31   C       -15.8688  206.7465  110.0174  C     
32   C       -16.5667  206.2748  111.1499  C     
33   C       -15.8992  206.1696  112.3897  C     
34   N       -16.4712  205.7063  113.5336  N     
35   C       -15.6519  205.7012  114.6065  C     
36   H       -13.8329  207.5987  108.2795  H     
37   H       -11.7814  207.4199  112.9862  H     
38   H       -10.0332  207.7379  110.7853  H     
39   H       -10.3148  208.4807  114.3802  H     
40   H        -8.4803  209.3126  115.6445  H     
41   H        -5.8004  209.9839  117.2928  H     
42   H        -9.2313  208.2651  117.4396  H     
43   H        -9.4003  209.3381  118.8474  H     
44   H        -9.1879  207.5961  119.0992  H     
45   H        -7.4493  206.1265  119.1959  H     
46   H        -6.0218  204.3981  118.2855  H     
47   H        -4.3869  204.9491  116.6028  H     
48   H        -3.6472  205.5754  114.4389  H     
49   H        -4.8825  206.7080  113.8313  H     
50   H        -3.1615  207.0904  113.6716  H     
51   H        -6.0171  209.1274  112.2276  H     
52   H        -7.8720  208.3087  110.9374  H     
53   H       -16.3440  206.8377  109.1168  H     
54   H       -17.5505  206.0052  111.0692  H     
55   H       -15.9083  205.3913  115.5443  H     
@<TRIPOS>BOND
     1    1    2 ar
     2    2    3 ar
     3    3    4 ar
     4    4    5 1
     5    5    6 1
     6    6    7 2
     7    6    8 1
     8    3    8 1
     9    8    9 2
    10    9   10 1
    11   10   11 1
    12   11   12 ar
    13   12   13 ar
    14   13   14 ar
    15   14   15 1
    16   15   16 2
    17   15   17 2
    18   15   18 1
    19   18   19 1
    20   19   20 ar
    21   20   21 1
    22   21   22 1
    23   20   23 ar
    24   23   24 ar
    25   24   25 ar
    26   25   26 ar
    27   19   26 ar
    28   26   27 1
    29   27   28 1
    30   14   29 ar
    31   29   30 ar
    32   11   30 ar
    33    4   31 ar
    34   31   32 ar
    35   32   33 ar
    36    2   33 ar
    37   33   34 ar
    38   34   35 ar
    39    1   35 ar
    40    5   36 1
    41    9   37 1
    42   10   38 1
    43   12   39 1
    44   13   40 1
    45   18   41 1
    46   22   42 1
    47   22   43 1
    48   22   44 1
    49   23   45 1
    50   24   46 1
    51   25   47 1
    52   28   48 1
    53   28   49 1
    54   28   50 1
    55   29   51 1
    56   30   52 1
    57   31   53 1
    58   32   54 1
    59   35   55 1
@<TRIPOS>PROPERTY_DATA
  Total_Score	| 10.8634
  Crash		| -0.6517
  Polar		| 4.9508
  FragIndex	| 1
  FragRMSD	| 0.153

