@<TRIPOS>MOLECULE
BindingDB_7749
 44 47 0 0 0
SMALL
NO_CHARGES


@<TRIPOS>ATOM
1    C       -15.8010  206.6908  109.9383  C     
2    C       -13.8255  206.9059  111.3987  C     
3    C       -12.5128  207.3132  111.2021  C     
4    C       -14.4453  206.9975  110.1459  C     
5    N       -13.5409  207.4216  109.2647  N     
6    C       -12.3946  207.5934  109.8767  C     
7    O       -11.4255  208.0498  109.2812  O     
8    N       -10.3079  207.8357  111.8772  N     
9    C        -9.3411  208.2763  112.7282  C     
10   C        -7.2295  209.3405  114.3249  C     
11   C        -7.0277  209.0685  112.9564  C     
12   C        -8.0710  208.5454  112.1682  C     
13   C        -9.5361  208.5497  114.1061  C     
14   C        -8.4975  209.0822  114.8878  C     
15   O        -4.5739  209.9098  114.5293  O     
16   S        -5.9701  210.0859  115.2768  S     
17   O        -6.3231  211.6340  115.2969  O     
18   C       -16.5591  206.2127  111.0273  C     
19   C       -11.5695  207.4888  112.1502  C     
20   N        -5.9062  209.5934  116.8850  N     
21   C       -15.9475  206.1041  112.2941  C     
22   C       -15.7405  205.7060  114.4459  C     
23   C       -14.6061  206.4633  112.4952  C     
24   S       -14.1486  206.2511  114.1555  S     
25   N       -16.5444  205.6618  113.4126  N     
26   C        -5.1999  210.3084  117.8953  C     
27   C        -6.1356  210.6666  119.0723  C     
28   O        -6.3559  212.0754  119.1544  O     
29   H       -16.2278  206.8066  109.0195  H     
30   H       -13.7067  207.5924  108.3234  H     
31   H       -10.0469  207.7995  110.9442  H     
32   H        -6.1290  209.2708  112.5129  H     
33   H        -7.9010  208.3801  111.1733  H     
34   H       -10.4468  208.4065  114.5415  H     
35   H        -8.6857  209.3050  115.8674  H     
36   H       -17.5389  205.9543  110.8983  H     
37   H       -11.8192  207.3342  113.0932  H     
38   H        -6.2307  208.6997  117.0998  H     
39   H       -16.0439  205.4279  115.3474  H     
40   H        -4.4005  209.6633  118.2733  H     
41   H        -4.7452  211.2193  117.4999  H     
42   H        -7.0856  210.1526  118.9680  H     
43   H        -5.6775  210.3526  120.0160  H     
44   H        -7.1535  212.2545  118.6141  H     
@<TRIPOS>BOND
     1    1    4 2
     2    1   18 1
     3    2    3 1
     4    2    4 1
     5    2   23 2
     6    3    6 1
     7    3   19 2
     8    4    5 1
     9    5    6 1
    10    6    7 2
    11    8    9 1
    12    8   19 1
    13    9   12 2
    14    9   13 1
    15   10   11 2
    16   10   14 1
    17   10   16 1
    18   11   12 1
    19   13   14 2
    20   15   16 2
    21   16   17 2
    22   16   20 1
    23   18   21 2
    24   20   26 1
    25   21   23 1
    26   21   25 1
    27   22   24 1
    28   22   25 2
    29   23   24 1
    30   26   27 1
    31   27   28 1
    32    1   29 1
    33    5   30 1
    34    8   31 1
    35   11   32 1
    36   12   33 1
    37   13   34 1
    38   14   35 1
    39   18   36 1
    40   19   37 1
    41   20   38 1
    42   22   39 1
    43   26   40 1
    44   26   41 1
    45   27   42 1
    46   27   43 1
    47   28   44 1
@<TRIPOS>PROPERTY_DATA
  Total_Score	| 11.3567
  Crash		| -0.7107
  Polar		| 6.5254
  FragIndex	| 1
  FragRMSD	| 0.108

