@<TRIPOS>MOLECULE
BindingDB_7751
 51 54 0 0 0
SMALL
NO_CHARGES


@<TRIPOS>ATOM
1    C       -15.8111  206.7195  109.9647  C     
2    C       -13.8173  206.9390  111.3988  C     
3    C       -12.5023  207.3351  111.1907  C     
4    C       -14.4522  207.0320  110.1510  C     
5    N       -13.5524  207.4349  109.2575  N     
6    C       -12.3968  207.6015  109.8582  C     
7    O       -11.4192  208.0078  109.2474  O     
8    N       -10.2839  207.8433  111.8503  N     
9    C        -9.3040  208.2984  112.6802  C     
10   C        -7.1371  209.3530  114.2200  C     
11   C        -6.9711  209.0576  112.8426  C     
12   C        -8.0465  208.5395  112.0929  C     
13   C        -9.4615  208.5868  114.0592  C     
14   C        -8.3923  209.1130  114.8127  C     
15   O        -4.4481  210.0211  114.4051  O     
16   S        -5.8542  210.0778  115.1438  S     
17   O        -6.2586  211.6224  115.2990  O     
18   C       -16.5606  206.2647  111.0678  C     
19   C       -11.5484  207.5073  112.1337  C     
20   N        -5.7237  209.4211  116.6940  N     
21   C       -15.9315  206.1465  112.3257  C     
22   C       -15.6858  205.7228  114.4664  C     
23   C       -14.5837  206.4896  112.5048  C     
24   S       -14.0891  206.2442  114.1475  S     
25   N       -16.5142  205.7055  113.4454  N     
26   C        -4.6718  209.7690  117.5833  C     
27   C        -5.0655  209.5343  119.0791  C     
28   O        -4.5020  210.4881  119.9929  O     
29   C        -4.8725  211.8811  119.8703  C     
30   C        -6.2480  212.2588  120.4553  C     
31   O        -7.3271  211.4583  119.9807  O     
32   H       -16.2495  206.8169  109.0444  H     
33   H       -13.7208  207.5727  108.3148  H     
34   H       -10.0252  207.7632  110.9202  H     
35   H        -6.0783  209.2311  112.3815  H     
36   H        -7.8953  208.3484  111.1002  H     
37   H       -10.3567  208.4429  114.5256  H     
38   H        -8.5437  209.3324  115.8004  H     
39   H       -17.5473  206.0147  110.9544  H     
40   H       -11.7959  207.3723  113.0773  H     
41   H        -6.2022  208.5904  116.8696  H     
42   H       -15.9715  205.4337  115.3704  H     
43   H        -3.7787  209.1812  117.3453  H     
44   H        -4.3819  210.8221  117.4180  H     
45   H        -6.1538  209.4725  119.1966  H     
46   H        -4.6835  208.5465  119.3777  H     
47   H        -4.1160  212.4298  120.4154  H     
48   H        -4.8467  212.2570  118.8301  H     
49   H        -6.2034  212.1788  121.5529  H     
50   H        -6.4624  213.2943  120.1884  H     
51   H        -7.5921  211.8358  119.1072  H     
@<TRIPOS>BOND
     1    1    4 2
     2    1   18 1
     3    2    3 1
     4    2    4 1
     5    2   23 2
     6    3    6 1
     7    3   19 2
     8    4    5 1
     9    5    6 1
    10    6    7 2
    11    8    9 1
    12    8   19 1
    13    9   12 2
    14    9   13 1
    15   10   11 2
    16   10   14 1
    17   10   16 1
    18   11   12 1
    19   13   14 2
    20   15   16 2
    21   16   17 2
    22   16   20 1
    23   18   21 2
    24   20   26 1
    25   21   23 1
    26   21   25 1
    27   22   24 1
    28   22   25 2
    29   23   24 1
    30   26   27 1
    31   27   28 1
    32   28   29 1
    33   29   30 1
    34   30   31 1
    35    1   32 1
    36    5   33 1
    37    8   34 1
    38   11   35 1
    39   12   36 1
    40   13   37 1
    41   14   38 1
    42   18   39 1
    43   19   40 1
    44   20   41 1
    45   22   42 1
    46   26   43 1
    47   26   44 1
    48   27   45 1
    49   27   46 1
    50   29   47 1
    51   29   48 1
    52   30   49 1
    53   30   50 1
    54   31   51 1
@<TRIPOS>PROPERTY_DATA
  Total_Score	| 11.4689
  Crash		| -1.0989
  Polar		| 6.2305
  FragIndex	| 1
  FragRMSD	| 0.083

