@<TRIPOS>MOLECULE
BindingDB_7757
 53 57 0 0 0
SMALL
NO_CHARGES


@<TRIPOS>ATOM
1    C       -15.8810  206.6889  110.0203  C     
2    C       -13.8598  206.9805  111.4011  C     
3    C       -12.5635  207.4066  111.1456  C     
4    C       -14.5263  207.0361  110.1685  C     
5    N       -13.6579  207.4453  109.2451  N     
6    C       -12.4874  207.6369  109.8106  C     
7    O       -11.5345  208.0577  109.1735  O     
8    N       -10.3301  207.9381  111.7489  N     
9    C        -9.3648  208.4543  112.5594  C     
10   C        -7.2228  209.4192  114.1691  C     
11   C        -6.9824  208.9847  112.8490  C     
12   C        -8.0473  208.5168  112.0510  C     
13   C        -9.5994  208.9452  113.8670  C     
14   C        -8.5426  209.4224  114.6639  C     
15   O        -4.5131  210.0416  114.5302  O     
16   S        -5.9428  209.9393  115.2253  S     
17   O        -6.3555  211.4457  115.5449  O     
18   C       -16.5877  206.2205  111.1439  C     
19   C       -11.5958  207.6244  112.0598  C     
20   N        -5.8461  209.0070  116.6374  N     
21   C       -15.9242  206.1381  112.3874  C     
22   C       -15.6141  205.7274  114.5237  C     
23   C       -14.5833  206.5270  112.5295  C     
24   S       -14.0467  206.3095  114.1660  S     
25   N       -16.4664  205.6888  113.5234  N     
26   C        -6.5838  209.3284  117.7412  C     
27   C        -8.5830  209.0000  119.1229  C     
28   C        -7.7580  208.5835  118.0499  C     
29   C        -7.0546  210.8144  119.6335  C     
30   C        -8.2487  210.1249  119.8923  C     
31   C        -6.1879  210.4075  118.5897  C     
32   C        -4.8379  211.0388  118.4910  C     
33   C        -8.1372  207.3755  117.2714  C     
34   H       -16.3385  206.7620  109.1113  H     
35   H       -13.8556  207.5657  108.3034  H     
36   H       -10.0508  207.7379  110.8433  H     
37   H        -6.0370  209.0019  112.4615  H     
38   H        -7.8524  208.2157  111.0945  H     
39   H       -10.5400  208.9659  114.2634  H     
40   H        -8.7536  209.7866  115.5920  H     
41   H       -17.5607  205.9270  111.0569  H     
42   H       -11.8249  207.5041  113.0128  H     
43   H        -5.6611  208.0610  116.4948  H     
44   H       -15.8712  205.4431  115.4350  H     
45   H        -9.4460  208.4938  119.3527  H     
46   H        -6.8143  211.6027  120.2407  H     
47   H        -8.8614  210.4123  120.6621  H     
48   H        -4.0752  210.2849  118.7272  H     
49   H        -4.7288  211.8865  119.1814  H     
50   H        -4.6455  211.4105  117.4809  H     
51   H        -8.2796  207.6477  116.2103  H     
52   H        -9.0675  206.9237  117.6298  H     
53   H        -7.3396  206.6300  117.3551  H     
@<TRIPOS>BOND
     1    1    4 2
     2    1   18 1
     3    2    3 1
     4    2    4 1
     5    2   23 2
     6    3    6 1
     7    3   19 2
     8    4    5 1
     9    5    6 1
    10    6    7 2
    11    8    9 1
    12    8   19 1
    13    9   12 2
    14    9   13 1
    15   10   11 2
    16   10   14 1
    17   10   16 1
    18   11   12 1
    19   13   14 2
    20   15   16 2
    21   16   17 2
    22   16   20 1
    23   18   21 2
    24   20   26 1
    25   21   23 1
    26   21   25 1
    27   22   24 1
    28   22   25 2
    29   23   24 1
    30   26   28 2
    31   26   31 1
    32   27   28 1
    33   27   30 2
    34   28   33 1
    35   29   30 1
    36   29   31 2
    37   31   32 1
    38    1   34 1
    39    5   35 1
    40    8   36 1
    41   11   37 1
    42   12   38 1
    43   13   39 1
    44   14   40 1
    45   18   41 1
    46   19   42 1
    47   20   43 1
    48   22   44 1
    49   27   45 1
    50   29   46 1
    51   30   47 1
    52   32   48 1
    53   32   49 1
    54   32   50 1
    55   33   51 1
    56   33   52 1
    57   33   53 1
@<TRIPOS>PROPERTY_DATA
  Total_Score	| 11.4728
  Crash		| -0.8982
  Polar		| 4.4521
  FragIndex	| 1
  FragRMSD	| 0.202

