@<TRIPOS>MOLECULE
BindingDB_7752
 68 71 0 0 0
SMALL
NO_CHARGES


@<TRIPOS>ATOM
1    C       -15.8612  206.7123  110.0090  C     
2    C       -13.8404  207.0027  111.3938  C     
3    C       -12.5416  207.4337  111.1522  C     
4    C       -14.5054  207.0650  110.1617  C     
5    N       -13.6372  207.4893  109.2458  N     
6    C       -12.4695  207.6838  109.8166  C     
7    O       -11.5154  208.1208  109.1867  O     
8    N       -10.3085  207.9496  111.7571  N     
9    C        -9.3420  208.4717  112.5605  C     
10   C        -7.1657  209.4781  114.1135  C     
11   C        -6.9526  209.0061  112.8044  C     
12   C        -8.0259  208.5239  112.0320  C     
13   C        -9.5550  208.9853  113.8644  C     
14   C        -8.4844  209.4949  114.6215  C     
15   O        -4.4436  210.0694  114.3628  O     
16   S        -5.8558  210.0761  115.1018  S     
17   O        -6.2557  211.5987  115.3115  O     
18   C       -16.5648  206.2303  111.1282  C     
19   C       -11.5711  207.6377  112.0680  C     
20   N        -5.7119  209.4288  116.6584  N     
21   C       -15.9056  206.1453  112.3717  C     
22   C       -15.5926  205.7405  114.5092  C     
23   C       -14.5664  206.5412  112.5189  C     
24   S       -14.0316  206.3346  114.1555  S     
25   N       -16.4426  205.6924  113.5088  N     
26   C        -6.5390  208.3894  117.1914  C     
27   C        -6.1240  206.9593  116.7495  C     
28   O        -4.8979  206.5757  117.3934  O     
29   C        -4.4009  205.2531  117.1030  C     
30   C        -5.2794  204.0864  117.6467  C     
31   O        -4.6209  203.3580  118.7036  O     
32   C        -5.1337  203.5427  120.0342  C     
33   C        -4.2139  202.8436  121.0720  C     
34   O        -4.8538  201.7489  121.7547  O     
35   C        -5.7390  202.0772  122.8404  C     
36   C        -6.3214  200.7686  123.4248  C     
37   O        -7.0539  200.9647  124.6510  O     
38   C        -7.6756  202.2497  124.8303  C     
39   H       -16.3190  206.7924  109.0992  H     
40   H       -13.8318  207.6257  108.3065  H     
41   H       -10.0236  207.7365  110.8492  H     
42   H        -6.0096  209.0111  112.4044  H     
43   H        -7.8346  208.1922  111.0794  H     
44   H       -10.4947  209.0165  114.2631  H     
45   H        -8.6740  209.8743  115.5517  H     
46   H       -17.5397  205.9413  111.0372  H     
47   H       -11.7969  207.5187  113.0214  H     
48   H        -5.1414  209.9059  117.2805  H     
49   H       -15.8448  205.4498  115.4215  H     
50   H        -6.4817  208.4452  118.2869  H     
51   H        -7.5830  208.5643  116.9057  H     
52   H        -6.9255  206.2749  117.0379  H     
53   H        -6.0286  206.9121  115.6609  H     
54   H        -4.2484  205.1352  116.0261  H     
55   H        -3.4110  205.1893  117.5628  H     
56   H        -6.2684  204.4401  117.9482  H     
57   H        -5.4397  203.3678  116.8399  H     
58   H        -5.2123  204.6063  120.2718  H     
59   H        -6.1323  203.1052  120.0827  H     
60   H        -3.3522  202.4108  120.5531  H     
61   H        -3.8169  203.5759  121.7836  H     
62   H        -5.1916  202.6045  123.6253  H     
63   H        -6.5524  202.7137  122.4863  H     
64   H        -6.9320  200.2611  122.6688  H     
65   H        -5.4861  200.1081  123.6669  H     
66   H        -6.9333  203.0477  124.8687  H     
67   H        -8.2107  202.2365  125.7809  H     
68   H        -8.3930  202.4540  124.0361  H     
@<TRIPOS>BOND
     1    1    4 2
     2    1   18 1
     3    2    3 1
     4    2    4 1
     5    2   23 2
     6    3    6 1
     7    3   19 2
     8    4    5 1
     9    5    6 1
    10    6    7 2
    11    8    9 1
    12    8   19 1
    13    9   12 2
    14    9   13 1
    15   10   11 2
    16   10   14 1
    17   10   16 1
    18   11   12 1
    19   13   14 2
    20   15   16 2
    21   16   17 2
    22   16   20 1
    23   18   21 2
    24   20   26 1
    25   21   23 1
    26   21   25 1
    27   22   24 1
    28   22   25 2
    29   23   24 1
    30   26   27 1
    31   27   28 1
    32   28   29 1
    33   29   30 1
    34   30   31 1
    35   31   32 1
    36   32   33 1
    37   33   34 1
    38   34   35 1
    39   35   36 1
    40   36   37 1
    41   37   38 1
    42    1   39 1
    43    5   40 1
    44    8   41 1
    45   11   42 1
    46   12   43 1
    47   13   44 1
    48   14   45 1
    49   18   46 1
    50   19   47 1
    51   20   48 1
    52   22   49 1
    53   26   50 1
    54   26   51 1
    55   27   52 1
    56   27   53 1
    57   29   54 1
    58   29   55 1
    59   30   56 1
    60   30   57 1
    61   32   58 1
    62   32   59 1
    63   33   60 1
    64   33   61 1
    65   35   62 1
    66   35   63 1
    67   36   64 1
    68   36   65 1
    69   38   66 1
    70   38   67 1
    71   38   68 1
@<TRIPOS>PROPERTY_DATA
  Total_Score	| 11.8583
  Crash		| -1.0743
  Polar		| 5.8333
  FragIndex	| 1
  FragRMSD	| 0.192

