@<TRIPOS>MOLECULE
BindingDB_7754
 47 51 0 0 0
SMALL
NO_CHARGES


@<TRIPOS>ATOM
1    C       -15.8136  206.6874  109.9802  C     
2    C       -13.8101  206.9291  111.3950  C     
3    C       -12.4946  207.3218  111.1720  C     
4    C       -14.4539  207.0032  110.1533  C     
5    N       -13.5576  207.3973  109.2469  N     
6    C       -12.3994  207.5742  109.8380  C     
7    O       -11.4281  207.9820  109.2164  O     
8    N       -10.2795  207.8568  111.8082  N     
9    C        -9.2906  208.2659  112.6472  C     
10   C        -7.1197  209.2592  114.2278  C     
11   C        -8.3588  208.9371  114.8202  C     
12   C        -9.4254  208.4387  114.0481  C     
13   C        -8.0488  208.5995  112.0581  C     
14   C        -6.9803  209.0935  112.8356  C     
15   O        -4.4095  209.9366  114.5223  O     
16   S        -5.8502  209.9437  115.1946  S     
17   O        -6.3093  211.4671  115.3015  O     
18   C       -16.5535  206.2437  111.0944  C     
19   C       -11.5370  207.5076  112.1023  C     
20   N        -5.8409  209.2468  116.7356  N     
21   C       -15.9191  206.1455  112.3490  C     
22   C       -15.6483  205.7414  114.4907  C     
23   C       -14.5690  206.4962  112.5142  C     
24   S       -14.0575  206.2669  114.1537  S     
25   N       -16.4829  205.7068  113.4797  N     
26   C        -5.9935  209.9911  117.8567  C     
27   C        -5.2682  211.8131  119.3135  C     
28   C        -5.0926  211.0325  118.1626  C     
29   C        -7.0667  209.7230  118.7424  C     
30   C        -7.2561  210.5228  119.8878  C     
31   C        -6.3616  211.5768  120.1661  C     
32   H       -16.2582  206.7776  109.0620  H     
33   H       -13.7326  207.5253  108.3015  H     
34   H       -10.0419  207.8489  110.8713  H     
35   H        -8.5072  209.0828  115.8196  H     
36   H       -10.3059  208.2313  114.5215  H     
37   H        -7.9165  208.4971  111.0477  H     
38   H        -6.1089  209.3500  112.3710  H     
39   H       -17.5376  205.9871  110.9888  H     
40   H       -11.7817  207.3811  113.0489  H     
41   H        -6.0677  208.2895  116.7954  H     
42   H       -15.9187  205.4467  115.3979  H     
43   H        -4.6082  212.5661  119.5297  H     
44   H        -4.2853  211.2036  117.5510  H     
45   H        -7.7287  208.9689  118.5362  H     
46   H        -8.0439  210.3425  120.5130  H     
47   H        -6.4943  212.1497  121.0028  H     
@<TRIPOS>BOND
     1    1    4 2
     2    1   18 1
     3    2    3 1
     4    2    4 1
     5    2   23 2
     6    3    6 1
     7    3   19 2
     8    4    5 1
     9    5    6 1
    10    6    7 2
    11    8    9 1
    12    8   19 1
    13    9   12 2
    14    9   13 1
    15   10   11 2
    16   10   14 1
    17   10   16 1
    18   11   12 1
    19   13   14 2
    20   15   16 2
    21   16   17 2
    22   16   20 1
    23   18   21 2
    24   20   26 1
    25   21   23 1
    26   21   25 1
    27   22   24 1
    28   22   25 2
    29   23   24 1
    30   26   28 2
    31   26   29 1
    32   27   28 1
    33   27   31 2
    34   29   30 2
    35   30   31 1
    36    1   32 1
    37    5   33 1
    38    8   34 1
    39   11   35 1
    40   12   36 1
    41   13   37 1
    42   14   38 1
    43   18   39 1
    44   19   40 1
    45   20   41 1
    46   22   42 1
    47   27   43 1
    48   28   44 1
    49   29   45 1
    50   30   46 1
    51   31   47 1
@<TRIPOS>PROPERTY_DATA
  Total_Score	| 11.0546
  Crash		| -0.6633
  Polar		| 4.8506
  FragIndex	| 1
  FragRMSD	| 0.078

