@<TRIPOS>MOLECULE
BindingDB_7758
 50 54 0 0 0
SMALL
NO_CHARGES


@<TRIPOS>ATOM
1    C       -15.8080  206.7458  109.9926  C     
2    C       -13.8009  206.9377  111.4112  C     
3    C       -12.4824  207.3110  111.1950  C     
4    C       -14.4431  207.0401  110.1713  C     
5    N       -13.5417  207.4349  109.2720  N     
6    C       -12.3813  207.5852  109.8653  C     
7    O       -11.4010  207.9811  109.2496  O     
8    N       -10.2627  207.7996  111.8424  N     
9    C        -9.2901  208.2558  112.6735  C     
10   C        -7.1406  209.3522  114.1910  C     
11   C        -6.9877  209.0902  112.8157  C     
12   C        -8.0488  208.5510  112.0680  C     
13   C        -9.4368  208.5079  114.0601  C     
14   C        -8.3740  209.0531  114.8083  C     
15   O        -4.5116  210.1304  114.2520  O     
16   S        -5.8634  210.1296  115.0866  S     
17   O        -6.2965  211.6480  115.2835  O     
18   C       -16.5518  206.2938  111.1010  C     
19   C       -11.5204  207.4500  112.1287  C     
20   N        -5.6068  209.4144  116.5953  N     
21   C       -15.9157  206.1701  112.3530  C     
22   C       -15.6526  205.7281  114.4906  C     
23   C       -14.5611  206.4952  112.5226  C     
24   S       -14.0582  206.2440  114.1624  S     
25   N       -16.4898  205.7285  113.4807  N     
26   C        -4.3836  209.5165  117.3206  C     
27   C        -4.4054  210.5393  118.4026  C     
28   C        -5.4734  212.3452  119.6840  C     
29   C        -5.5158  211.3854  118.6521  C     
30   C        -3.2651  210.6675  119.2282  C     
31   C        -3.2287  211.6127  120.2668  C     
32   C        -4.3308  212.4564  120.4916  C     
33   H       -16.2491  206.8474  109.0770  H     
34   H       -13.7142  207.5866  108.3296  H     
35   H       -10.0089  207.7430  110.9089  H     
36   H        -6.1119  209.3169  112.3373  H     
37   H        -7.9098  208.3959  111.0654  H     
38   H       -10.3229  208.3316  114.5349  H     
39   H        -8.5211  209.2558  115.8034  H     
40   H       -17.5400  206.0542  110.9944  H     
41   H       -11.7579  207.2957  113.0741  H     
42   H        -6.4003  209.2006  117.1220  H     
43   H       -15.9280  205.4346  115.3954  H     
44   H        -4.2064  208.5350  117.7758  H     
45   H        -3.5481  209.7144  116.6475  H     
46   H        -6.2687  212.9619  119.8446  H     
47   H        -6.3612  211.3188  118.0803  H     
48   H        -2.4540  210.0676  119.0734  H     
49   H        -2.3956  211.6879  120.8538  H     
50   H        -4.2974  213.1470  121.2417  H     
@<TRIPOS>BOND
     1    1    4 2
     2    1   18 1
     3    2    3 1
     4    2    4 1
     5    2   23 2
     6    3    6 1
     7    3   19 2
     8    4    5 1
     9    5    6 1
    10    6    7 2
    11    8    9 1
    12    8   19 1
    13    9   12 2
    14    9   13 1
    15   10   11 2
    16   10   14 1
    17   10   16 1
    18   11   12 1
    19   13   14 2
    20   15   16 2
    21   16   17 2
    22   16   20 1
    23   18   21 2
    24   20   26 1
    25   21   23 1
    26   21   25 1
    27   22   24 1
    28   22   25 2
    29   23   24 1
    30   26   27 1
    31   27   29 2
    32   27   30 1
    33   28   29 1
    34   28   32 2
    35   30   31 2
    36   31   32 1
    37    1   33 1
    38    5   34 1
    39    8   35 1
    40   11   36 1
    41   12   37 1
    42   13   38 1
    43   14   39 1
    44   18   40 1
    45   19   41 1
    46   20   42 1
    47   22   43 1
    48   26   44 1
    49   26   45 1
    50   28   46 1
    51   29   47 1
    52   30   48 1
    53   31   49 1
    54   32   50 1
@<TRIPOS>PROPERTY_DATA
  Total_Score	| 10.8286
  Crash		| -0.6734
  Polar		| 4.3704
  FragIndex	| 1
  FragRMSD	| 0.126

