@<TRIPOS>MOLECULE
BindingDB_24639
 30 31 0 0 0
SMALL
NO_CHARGES


@<TRIPOS>ATOM
1    C        28.8499    5.9538   64.6459  C     
2    C        27.6229    6.6387   64.5201  C     
3    C        26.6707    5.6515   64.6981  C     
4    N        28.5695    4.6690   64.9557  N     
5    N        27.2881    4.5012   64.9871  N     
6    C        30.1349    6.3994   64.4761  C     
7    O        31.0744    5.6512   64.2488  O     
8    N        30.3299    7.6565   64.7906  N     
9    C        31.4418    8.3758   65.0240  C     
10   C        32.8693    9.4859   66.6819  C     
11   C        31.8068    8.6226   66.3722  C     
12   C        32.1410    9.0393   63.9934  C     
13   C        33.1921    9.9249   64.3099  C     
14   C        33.5705   10.1345   65.6496  C     
15   F        34.5562   10.9318   65.9435  F     
16   N        27.1842    7.8919   64.1687  N     
17   C        27.5826    9.1508   64.3113  C     
18   C        26.8467   10.1354   63.5303  C     
19   O        28.5653    9.5739   64.8616  O     
20   H        25.6583    5.7786   64.6261  H     
21   H        26.8429    3.6631   65.1753  H     
22   H        29.5622    8.0098   65.2181  H     
23   H        33.1200    9.6585   67.6611  H     
24   H        31.2840    8.1822   67.1356  H     
25   H        31.8553    8.9146   63.0246  H     
26   H        33.6699   10.4329   63.5593  H     
27   H        26.3288    7.8337   63.7181  H     
28   H        26.7852    9.8119   62.4907  H     
29   H        27.3335   11.1117   63.5465  H     
30   H        25.8384   10.2492   63.9220  H     
@<TRIPOS>BOND
     1    1    2 1
     2    1    4 2
     3    1    6 1
     4    2    3 2
     5    2   16 1
     6    3    5 1
     7    4    5 1
     8    6    7 2
     9    6    8 am
    10    8    9 1
    11    9   11 2
    12    9   12 1
    13   10   11 1
    14   10   14 2
    15   12   13 2
    16   13   14 1
    17   14   15 1
    18   16   17 am
    19   17   18 1
    20   17   19 2
    21    3   20 1
    22    5   21 1
    23    8   22 1
    24   10   23 1
    25   11   24 1
    26   12   25 1
    27   13   26 1
    28   16   27 1
    29   18   28 1
    30   18   29 1
    31   18   30 1
@<TRIPOS>PROPERTY_DATA
  Total_Score	| 3.0143
  Crash		| -1.4549
  Polar		| 0.9258
  FragIndex	| 1
  FragRMSD	| 1.069

