@<TRIPOS>MOLECULE
BindingDB_24635
 34 36 0 0 0
SMALL
NO_CHARGES


@<TRIPOS>ATOM
1    C        29.4605    7.9098   63.7690  C     
2    O        29.6215    8.9289   63.1096  O     
3    N        30.2380    7.6514   64.8153  N     
4    C        31.3044    8.3929   65.2651  C     
5    C        32.6015    9.2138   67.1823  C     
6    C        31.5391    8.4549   66.6536  C     
7    C        32.1863    9.1018   64.4077  C     
8    C        33.2540    9.8600   64.9352  C     
9    C        33.4663    9.9193   66.3283  C     
10   C        28.4081    7.0861   63.3925  C     
11   C        27.8601    5.9223   63.9392  C     
12   C        27.4012    3.9587   65.2952  C     
13   C        26.4056    3.5550   64.3752  C     
14   C        26.1209    4.3406   63.2427  C     
15   C        26.8612    5.5180   63.0469  C     
16   C        28.1300    5.1502   65.0865  C     
17   N        27.7231    7.3108   62.2492  N     
18   N        26.8295    6.4001   62.0493  N     
19   N        36.2206    9.9035   66.4945  N     
20   S        34.8517   10.7552   66.9707  S     
21   O        34.9437   12.1985   66.3049  O     
22   O        34.8514   10.8835   68.5555  O     
23   H        29.9884    6.8822   65.3752  H     
24   H        32.7354    9.2270   68.1941  H     
25   H        30.9217    7.9445   67.2937  H     
26   H        32.0925    9.0515   63.3895  H     
27   H        33.8957   10.3431   64.2921  H     
28   H        27.5814    3.3873   66.1205  H     
29   H        25.8901    2.6883   64.5336  H     
30   H        25.4041    4.0525   62.5653  H     
31   H        28.8460    5.4486   65.7483  H     
32   H        26.2597    6.3541   61.2679  H     
33   H        37.0806   10.3461   66.4197  H     
34   H        36.1615    8.9363   66.3977  H     
@<TRIPOS>BOND
     1    1    2 2
     2    1    3 am
     3    1   10 1
     4    3    4 1
     5    4    6 2
     6    4    7 1
     7    5    6 1
     8    5    9 2
     9    7    8 2
    10    8    9 1
    11    9   20 1
    12   10   11 1
    13   10   17 2
    14   11   15 2
    15   11   16 1
    16   12   13 1
    17   12   16 2
    18   13   14 2
    19   14   15 1
    20   15   18 1
    21   17   18 1
    22   19   20 am
    23   20   21 2
    24   20   22 2
    25    3   23 1
    26    5   24 1
    27    6   25 1
    28    7   26 1
    29    8   27 1
    30   12   28 1
    31   13   29 1
    32   14   30 1
    33   16   31 1
    34   18   32 1
    35   19   33 1
    36   19   34 1
@<TRIPOS>PROPERTY_DATA
  Total_Score	| 2.3106
  Crash		| -2.4421
  Polar		| 0.6189
  FragIndex	| 1
  FragRMSD	| 1.402

