@<TRIPOS>MOLECULE
BindingDB_24642
 43 45 0 0 0
SMALL
NO_CHARGES


@<TRIPOS>ATOM
1    C        28.4269    6.0986   64.7533  C     
2    C        27.2754    6.1057   63.9607  C     
3    C        26.7569    4.8272   64.0824  C     
4    N        28.5729    4.8571   65.2528  N     
5    N        27.5868    4.1184   64.8578  N     
6    C        29.2491    7.1614   65.0580  C     
7    O        28.7360    8.2658   65.2074  O     
8    N        30.5582    7.0077   64.9777  N     
9    C        31.4812    7.9931   65.1523  C     
10   C        32.9898    9.2601   66.5997  C     
11   C        31.9977    8.2765   66.4349  C     
12   C        31.9581    8.7173   64.0390  C     
13   C        32.9299    9.7217   64.2072  C     
14   C        33.4656    9.9730   65.4850  C     
15   F        34.3974   10.8714   65.6408  F     
16   N        26.7027    7.0700   63.1846  N     
17   C        27.2935    8.0799   62.5483  C     
18   O        28.5098    8.2329   62.5615  O     
19   C        26.4762    9.0401   61.8062  C     
20   C        26.2415   10.4366   59.6537  C     
21   C        25.9445   11.7014   60.5000  C     
22   C        25.3141   11.3414   61.8706  C     
23   C        26.1838   10.3193   62.6500  C     
24   C        27.1122    9.4175   60.4315  C     
25   H        25.9125    4.4714   63.6366  H     
26   H        27.4637    3.1837   65.0980  H     
27   H        30.8822    6.1503   64.6568  H     
28   H        33.3662    9.4483   67.5308  H     
29   H        31.6632    7.7569   67.2481  H     
30   H        31.5904    8.5250   63.1025  H     
31   H        33.2665   10.2496   63.3991  H     
32   H        25.7523    6.9716   63.0366  H     
33   H        25.5059    8.5833   61.5883  H     
34   H        25.2968    9.9638   59.3701  H     
35   H        26.7618   10.7296   58.7377  H     
36   H        26.8737   12.2538   60.6661  H     
37   H        25.2631   12.3524   59.9472  H     
38   H        25.2044   12.2502   62.4672  H     
39   H        24.3147   10.9229   61.7130  H     
40   H        25.6544   10.0427   63.5674  H     
41   H        27.1243   10.8010   62.9369  H     
42   H        28.1043    9.8567   60.5864  H     
43   H        27.2362    8.5185   59.8208  H     
@<TRIPOS>BOND
     1    1    2 1
     2    1    4 2
     3    1    6 1
     4    2    3 2
     5    2   16 1
     6    3    5 1
     7    4    5 1
     8    6    7 2
     9    6    8 am
    10    8    9 1
    11    9   11 2
    12    9   12 1
    13   10   11 1
    14   10   14 2
    15   12   13 2
    16   13   14 1
    17   14   15 1
    18   16   17 am
    19   17   18 2
    20   17   19 1
    21   19   23 1
    22   19   24 1
    23   20   21 1
    24   20   24 1
    25   21   22 1
    26   22   23 1
    27    3   25 1
    28    5   26 1
    29    8   27 1
    30   10   28 1
    31   11   29 1
    32   12   30 1
    33   13   31 1
    34   16   32 1
    35   19   33 1
    36   20   34 1
    37   20   35 1
    38   21   36 1
    39   21   37 1
    40   22   38 1
    41   22   39 1
    42   23   40 1
    43   23   41 1
    44   24   42 1
    45   24   43 1
@<TRIPOS>PROPERTY_DATA
  Total_Score	| 4.8220
  Crash		| -1.4413
  Polar		| 1.2652
  FragIndex	| 1
  FragRMSD	| 0.604

