@<TRIPOS>MOLECULE
BindingDB_24644
 37 39 0 0 0
SMALL
NO_CHARGES


@<TRIPOS>ATOM
1    C        28.4973    6.1341   64.3444  C     
2    C        27.1978    6.1078   63.8176  C     
3    C        26.6061    4.9699   64.3452  C     
4    N        28.6281    5.0269   65.1078  N     
5    N        27.5262    4.3490   65.0916  N     
6    C        29.4696    7.1199   64.2230  C     
7    O        29.2727    8.0554   63.4568  O     
8    N        30.5251    7.1119   65.0344  N     
9    C        31.4894    8.0756   65.1864  C     
10   C        32.8553    9.3765   66.7552  C     
11   C        31.8926    8.3801   66.5058  C     
12   C        32.1085    8.7671   64.1153  C     
13   C        33.0789    9.7570   64.3614  C     
14   C        33.4555   10.0619   65.6835  C     
15   F        34.3737   10.9606   65.9162  F     
16   N        26.5356    6.9969   63.0238  N     
17   C        26.8777    7.3516   61.7907  C     
18   O        27.8391    6.8227   61.2479  O     
19   C        26.1202    8.2729   61.0657  C     
20   C        25.0304    8.9561   58.9661  C     
21   C        24.6755   10.1858   59.5389  C     
22   C        25.0042   10.4577   60.8784  C     
23   C        25.7481    8.0068   59.7185  C     
24   C        25.7205    9.5122   61.6391  C     
25   F        26.0236    6.8682   59.1356  F     
26   F        26.0324    9.8421   62.8676  F     
27   H        25.6493    4.6465   64.1846  H     
28   H        27.3834    3.5142   65.5677  H     
29   H        30.5531    6.3886   65.6819  H     
30   H        33.1255    9.5918   67.7184  H     
31   H        31.4700    7.8909   67.3002  H     
32   H        31.8768    8.5411   63.1466  H     
33   H        33.5189   10.2442   63.5762  H     
34   H        25.6821    7.3177   63.3514  H     
35   H        24.7690    8.7584   57.9972  H     
36   H        24.1669   10.8757   58.9807  H     
37   H        24.7360   11.3559   61.2900  H     
@<TRIPOS>BOND
     1    1    2 1
     2    1    4 2
     3    1    6 1
     4    2    3 2
     5    2   16 1
     6    3    5 1
     7    4    5 1
     8    6    7 2
     9    6    8 am
    10    8    9 1
    11    9   11 2
    12    9   12 1
    13   10   11 1
    14   10   14 2
    15   12   13 2
    16   13   14 1
    17   14   15 1
    18   16   17 am
    19   17   18 2
    20   17   19 1
    21   19   23 2
    22   19   24 1
    23   20   21 2
    24   20   23 1
    25   21   22 1
    26   22   24 2
    27   23   25 1
    28   24   26 1
    29    3   27 1
    30    5   28 1
    31    8   29 1
    32   10   30 1
    33   11   31 1
    34   12   32 1
    35   13   33 1
    36   16   34 1
    37   20   35 1
    38   21   36 1
    39   22   37 1
@<TRIPOS>PROPERTY_DATA
  Total_Score	| 4.8867
  Crash		| -1.7327
  Polar		| 1.6560
  FragIndex	| 1
  FragRMSD	| 0.370

