@<TRIPOS>MOLECULE
BindingDB_24636
 23 24 0 0 0
SMALL
NO_CHARGES


@<TRIPOS>ATOM
1    C        29.1365    7.0698   64.4340  C     
2    O        28.7549    8.0398   63.7934  O     
3    N        30.3293    7.0283   65.0209  N     
4    C        31.3281    7.9648   65.1361  C     
5    C        32.7256    9.2616   66.6909  C     
6    C        31.7648    8.2592   66.4563  C     
7    C        31.9201    8.6993   64.0625  C     
8    C        32.8828    9.6875   64.3064  C     
9    C        33.3002    9.9780   65.6222  C     
10   C        28.2621    6.0053   64.5629  C     
11   C        26.9618    5.9504   64.0637  C     
12   C        26.4815    4.6937   64.3817  C     
13   N        28.5055    4.8130   65.1497  N     
14   N        27.4545    4.0618   65.0448  N     
15   H        30.5082    6.1994   65.4877  H     
16   H        32.9997    9.4901   67.6494  H     
17   H        31.3562    7.7653   67.2654  H     
18   H        31.6487    8.5525   63.0918  H     
19   H        33.2715   10.2144   63.5193  H     
20   H        33.9985   10.7082   65.7970  H     
21   H        26.4578    6.6825   63.5554  H     
22   H        25.5498    4.3291   64.1736  H     
23   H        27.3817    3.1526   65.3828  H     
@<TRIPOS>BOND
     1    1    2 2
     2    1    3 am
     3    1   10 1
     4    3    4 1
     5    4    6 2
     6    4    7 1
     7    5    6 1
     8    5    9 2
     9    7    8 2
    10    8    9 1
    11   10   11 1
    12   10   13 2
    13   11   12 2
    14   12   14 1
    15   13   14 1
    16    3   15 1
    17    5   16 1
    18    6   17 1
    19    7   18 1
    20    8   19 1
    21    9   20 1
    22   11   21 1
    23   12   22 1
    24   14   23 1
@<TRIPOS>PROPERTY_DATA
  Total_Score	| 4.5091
  Crash		| -0.4642
  Polar		| 2.4489
  FragIndex	| 1
  FragRMSD	| 0.525

