@<TRIPOS>MOLECULE
BindingDB_24643
 37 39 0 0 0
SMALL
NO_CHARGES


@<TRIPOS>ATOM
1    C        28.3321    5.9448   64.8214  C     
2    C        27.1665    5.8337   63.9815  C     
3    C        26.6781    4.5468   64.3194  C     
4    N        28.5158    4.7623   65.4734  N     
5    N        27.5610    3.9844   65.1239  N     
6    C        29.2648    6.9913   64.7366  C     
7    O        29.1222    7.1530   63.5444  O     
8    N        30.5041    7.3672   65.2629  N     
9    C        31.5834    8.4002   65.1405  C     
10   C        33.0769    9.5625   66.7615  C     
11   C        32.0667    8.6180   66.4581  C     
12   C        32.2216    9.3380   64.1709  C     
13   C        33.4661    9.9247   64.3968  C     
14   C        33.8386   10.1611   65.7188  C     
15   F        34.8622   10.9172   65.9941  F     
16   N        26.6811    6.6533   62.9435  N     
17   C        27.2081    7.6597   62.0660  C     
18   O        28.4543    8.1020   61.9462  O     
19   C        26.2420    8.3921   61.4211  C     
20   C        24.8763   10.3961   61.2837  C     
21   C        24.6549   10.0989   59.9147  C     
22   C        25.1191    8.8704   59.3785  C     
23   C        25.9542    8.0146   60.1016  C     
24   C        25.6718    9.5110   62.0348  C     
25   H        25.8676    4.1053   63.9334  H     
26   H        27.4593    3.0640   65.3545  H     
27   H        30.8507    6.5478   65.6363  H     
28   H        33.3386    9.7881   67.7144  H     
29   H        31.6873    8.1326   67.2474  H     
30   H        31.8062    9.9496   63.3734  H     
31   H        33.9854   10.3558   63.6008  H     
32   H        25.7895    6.4630   62.6955  H     
33   H        24.5489   11.2589   61.6609  H     
34   H        24.2243   10.8193   59.3250  H     
35   H        24.9284    8.6620   58.3999  H     
36   H        26.2918    7.1530   59.6848  H     
37   H        25.8374    9.7387   63.0339  H     
@<TRIPOS>BOND
     1    1    2 1
     2    1    4 2
     3    1    6 1
     4    2    3 2
     5    2   16 1
     6    3    5 1
     7    4    5 1
     8    6    7 2
     9    6    8 am
    10    8    9 1
    11    9   11 2
    12    9   12 1
    13   10   11 1
    14   10   14 2
    15   12   13 2
    16   13   14 1
    17   14   15 1
    18   16   17 am
    19   17   18 2
    20   17   19 1
    21   19   23 1
    22   19   24 2
    23   20   21 2
    24   20   24 1
    25   21   22 1
    26   22   23 2
    27    3   25 1
    28    5   26 1
    29    8   27 1
    30   10   28 1
    31   11   29 1
    32   12   30 1
    33   13   31 1
    34   16   32 1
    35   20   33 1
    36   21   34 1
    37   22   35 1
    38   23   36 1
    39   24   37 1
@<TRIPOS>PROPERTY_DATA
  Total_Score	| 4.6232
  Crash		| -2.1350
  Polar		| 2.7818
  FragIndex	| 1
  FragRMSD	| 0.491

