@<TRIPOS>MOLECULE
BindingDB_24640
 31 32 0 0 0
SMALL
NO_CHARGES


@<TRIPOS>ATOM
1    C        28.7192    5.8478   64.9635  C     
2    C        27.8946    6.0469   63.8508  C     
3    C        26.9918    4.9870   63.8825  C     
4    N        28.3152    4.7099   65.5667  N     
5    N        27.3047    4.2145   64.9305  N     
6    C        29.7536    6.6338   65.4645  C     
7    O        29.9966    6.4929   66.6550  O     
8    N        30.4536    7.4776   64.7090  N     
9    C        31.4808    8.3411   65.0167  C     
10   C        33.0545    9.5211   66.5053  C     
11   C        31.9871    8.6229   66.3142  C     
12   C        32.0646    9.0300   63.9278  C     
13   C        33.1260    9.9396   64.1135  C     
14   C        33.6373   10.1687   65.4023  C     
15   F        34.6461   10.9721   65.5801  F     
16   N        28.0318    7.0692   62.9543  N     
17   C        27.3394    7.3037   61.8461  C     
18   O        26.3484    6.6495   61.5493  O     
19   C        27.7319    8.3733   60.9493  C     
20   O        29.0237    8.8893   61.2428  O     
21   H        26.2393    4.7877   63.2257  H     
22   H        26.8509    3.3907   65.1747  H     
23   H        30.2324    7.4511   63.7712  H     
24   H        33.4097    9.6990   67.4525  H     
25   H        31.5844    8.1935   67.1480  H     
26   H        31.7236    8.8672   62.9746  H     
27   H        33.5339   10.4195   63.3061  H     
28   H        28.7568    7.6729   63.1278  H     
29   H        27.7259    8.0067   59.9163  H     
30   H        26.9990    9.1869   61.0223  H     
31   H        29.5284    8.8358   60.4005  H     
@<TRIPOS>BOND
     1    1    2 1
     2    1    4 2
     3    1    6 1
     4    2    3 2
     5    2   16 1
     6    3    5 1
     7    4    5 1
     8    6    7 2
     9    6    8 am
    10    8    9 1
    11    9   11 2
    12    9   12 1
    13   10   11 1
    14   10   14 2
    15   12   13 2
    16   13   14 1
    17   14   15 1
    18   16   17 am
    19   17   18 2
    20   17   19 1
    21   19   20 1
    22    3   21 1
    23    5   22 1
    24    8   23 1
    25   10   24 1
    26   11   25 1
    27   12   26 1
    28   13   27 1
    29   16   28 1
    30   19   29 1
    31   19   30 1
    32   20   31 1
@<TRIPOS>PROPERTY_DATA
  Total_Score	| 3.8352
  Crash		| -1.7707
  Polar		| 2.6206
  FragIndex	| 1
  FragRMSD	| 1.122

