@<TRIPOS>MOLECULE
BindingDB_24641
 40 42 0 0 0
SMALL
NO_CHARGES


@<TRIPOS>ATOM
1    C        28.5351    6.3633   64.6638  C     
2    C        27.6779    6.0643   63.6126  C     
3    C        27.0570    4.8731   63.9732  C     
4    N        28.4140    5.3850   65.5921  N     
5    N        27.5462    4.5205   65.1775  N     
6    C        29.3943    7.4322   64.7451  C     
7    O        28.9693    8.5580   64.4581  O     
8    N        30.5748    7.3046   65.3258  N     
9    C        31.5555    8.2531   65.3953  C     
10   C        33.1098    9.5149   66.7994  C     
11   C        32.0859    8.5568   66.6622  C     
12   C        32.0953    8.8974   64.2515  C     
13   C        33.1229    9.8360   64.3843  C     
14   C        33.6435   10.1476   65.6530  C     
15   F        34.6231   10.9950   65.7816  F     
16   N        27.5783    6.8421   62.4963  N     
17   C        26.7943    6.7380   61.4459  C     
18   O        26.1169    5.7320   61.2427  O     
19   C        26.7776    7.8261   60.4784  C     
20   C        26.4907    9.2057   60.9830  C     
21   C        25.7156   10.8446   62.6453  C     
22   C        26.0079   11.8984   61.7696  C     
23   C        26.5442   11.6220   60.4986  C     
24   C        26.7906   10.2950   60.1164  C     
25   C        25.9368    9.5154   62.2515  C     
26   H        26.3920    4.3297   63.4356  H     
27   H        27.2983    3.7173   65.6580  H     
28   H        30.7685    6.4432   65.7418  H     
29   H        33.4807    9.7366   67.7232  H     
30   H        31.7286    8.0876   67.4987  H     
31   H        31.7664    8.6529   63.3115  H     
32   H        33.5122   10.2910   63.5442  H     
33   H        28.1399    7.6340   62.5019  H     
34   H        27.7651    7.8421   60.0034  H     
35   H        26.0536    7.6023   59.6934  H     
36   H        25.3350   11.0519   63.5759  H     
37   H        25.8264   12.8622   62.0520  H     
38   H        26.7548   12.3888   59.8549  H     
39   H        27.1878   10.1167   59.1939  H     
40   H        25.6926    8.7694   62.9108  H     
@<TRIPOS>BOND
     1    1    2 1
     2    1    4 2
     3    1    6 1
     4    2    3 2
     5    2   16 1
     6    3    5 1
     7    4    5 1
     8    6    7 2
     9    6    8 am
    10    8    9 1
    11    9   11 2
    12    9   12 1
    13   10   11 1
    14   10   14 2
    15   12   13 2
    16   13   14 1
    17   14   15 1
    18   16   17 am
    19   17   18 2
    20   17   19 1
    21   19   20 1
    22   20   24 2
    23   20   25 1
    24   21   22 1
    25   21   25 2
    26   22   23 2
    27   23   24 1
    28    3   26 1
    29    5   27 1
    30    8   28 1
    31   10   29 1
    32   11   30 1
    33   12   31 1
    34   13   32 1
    35   16   33 1
    36   19   34 1
    37   19   35 1
    38   21   36 1
    39   22   37 1
    40   23   38 1
    41   24   39 1
    42   25   40 1
@<TRIPOS>PROPERTY_DATA
  Total_Score	| 4.3952
  Crash		| -1.7861
  Polar		| 1.2799
  FragIndex	| 1
  FragRMSD	| 0.443

