@<TRIPOS>MOLECULE
BindingDB_24634
 29 31 0 0 0
SMALL
NO_CHARGES


@<TRIPOS>ATOM
1    C        29.6519    7.2587   64.4605  C     
2    O        29.6111    7.9702   63.4594  O     
3    N        30.6897    7.3280   65.2886  N     
4    C        31.6848    8.2560   65.3412  C     
5    C        33.1211    9.6282   66.7905  C     
6    C        32.1355    8.6336   66.6330  C     
7    C        32.2396    8.9247   64.2218  C     
8    C        33.1996    9.9302   64.3771  C     
9    C        33.6522   10.2845   65.6638  C     
10   C        28.7228    6.2660   64.6312  C     
11   C        27.7161    5.8570   63.7536  C     
12   C        26.2976    5.5313   61.8113  C     
13   C        25.6872    4.4315   62.4450  C     
14   C        26.0941    4.0255   63.7270  C     
15   C        27.1142    4.7559   64.3569  C     
16   C        27.2932    6.2780   62.4788  C     
17   N        28.6582    5.4396   65.7027  N     
18   N        27.7254    4.5576   65.5319  N     
19   H        30.7766    6.5770   65.9238  H     
20   H        33.4555    9.8929   67.7209  H     
21   H        31.7492    8.1769   67.4607  H     
22   H        31.8643    8.7375   63.2853  H     
23   H        33.5523   10.4222   63.5625  H     
24   H        34.3491   11.0161   65.7917  H     
25   H        26.0406    5.7871   60.8583  H     
26   H        24.9342    3.9168   61.9712  H     
27   H        25.6821    3.2049   64.1890  H     
28   H        27.7265    7.0765   62.0089  H     
29   H        27.5143    3.8340   66.1440  H     
@<TRIPOS>BOND
     1    1    2 2
     2    1    3 am
     3    1   10 1
     4    3    4 1
     5    4    6 2
     6    4    7 1
     7    5    6 1
     8    5    9 2
     9    7    8 2
    10    8    9 1
    11   10   11 1
    12   10   17 2
    13   11   15 2
    14   11   16 1
    15   12   13 1
    16   12   16 2
    17   13   14 2
    18   14   15 1
    19   15   18 1
    20   17   18 1
    21    3   19 1
    22    5   20 1
    23    6   21 1
    24    7   22 1
    25    8   23 1
    26    9   24 1
    27   12   25 1
    28   13   26 1
    29   14   27 1
    30   16   28 1
    31   18   29 1
@<TRIPOS>PROPERTY_DATA
  Total_Score	| 0.2277
  Crash		| -4.0750
  Polar		| 1.0990
  FragIndex	| 1
  FragRMSD	| 0.351

