@<TRIPOS>MOLECULE
BindingDB_24638
 25 26 0 0 0
SMALL
NO_CHARGES


@<TRIPOS>ATOM
1    C        28.4915    6.1595   64.5464  C     
2    C        27.1793    6.1458   64.0708  C     
3    C        26.6599    4.9066   64.4165  C     
4    N        28.6995    4.9577   65.1399  N     
5    N        27.6277    4.2336   65.0549  N     
6    C        29.4203    7.1882   64.4453  C     
7    N        26.5132    7.1190   63.4165  N     
8    O        29.1374    8.1810   63.7821  O     
9    N        30.5437    7.1432   65.1522  N     
10   C        31.5122    8.1073   65.2515  C     
11   C        33.0035    9.3815   66.7196  C     
12   C        32.0225    8.3886   66.5380  C     
13   C        32.0397    8.8124   64.1408  C     
14   C        33.0333    9.7921   64.3195  C     
15   C        33.5189   10.0753   65.6110  C     
16   F        34.4526   10.9702   65.7857  F     
17   H        25.7178    4.5631   64.2264  H     
18   H        27.5322    3.3278   65.4074  H     
19   H        25.5964    6.9835   63.1475  H     
20   H        26.9497    7.9619   63.2061  H     
21   H        30.6314    6.3914   65.7629  H     
22   H        33.3467    9.5927   67.6588  H     
23   H        31.6649    7.8860   67.3573  H     
24   H        31.7252    8.6019   63.1914  H     
25   H        33.4040   10.2889   63.5053  H     
@<TRIPOS>BOND
     1    1    2 1
     2    1    4 2
     3    1    6 1
     4    2    3 2
     5    2    7 1
     6    3    5 1
     7    4    5 1
     8    6    8 2
     9    6    9 am
    10    9   10 1
    11   10   12 2
    12   10   13 1
    13   11   12 1
    14   11   15 2
    15   13   14 2
    16   14   15 1
    17   15   16 1
    18    3   17 1
    19    5   18 1
    20    7   19 1
    21    7   20 1
    22    9   21 1
    23   11   22 1
    24   12   23 1
    25   13   24 1
    26   14   25 1
@<TRIPOS>PROPERTY_DATA
  Total_Score	| 2.9831
  Crash		| -1.1208
  Polar		| 2.0378
  FragIndex	| 1
  FragRMSD	| 0.293

