@<TRIPOS>MOLECULE
BindingDB_50355643
 33 34 0 0 0
SMALL
NO_CHARGES


@<TRIPOS>ATOM
1    O        23.8012   34.3124   63.3841  O     
2    S        23.7155   32.9403   62.5858  S     
3    O        23.2324   33.3758   61.1321  O     
4    S        20.4790   30.6912   65.1516  S     
5    C        20.6331   30.6306   63.4334  C     
6    C        19.4419   30.0460   62.9382  C     
7    C        18.5038   29.7356   63.9471  C     
8    C        18.9101   30.0064   65.2493  C     
9    C        21.7334   31.1357   62.7498  C     
10   O        21.9001   30.8594   61.5620  O     
11   N        22.5088   32.0321   63.3397  N     
12   S        19.1171   29.8393   61.2297  S     
13   C        17.7292   28.6777   61.1946  C     
14   C        17.2782   28.4190   59.7996  C     
15   C        17.1750   27.1009   59.3003  C     
16   C        16.7227   26.8499   57.9873  C     
17   C        16.3709   27.9379   57.1504  C     
18   C        16.4451   29.2561   57.6467  C     
19   C        16.8721   29.4910   58.9624  C     
20   Cl       15.8276   27.7187   55.5596  Cl    
21   Cl       16.6014   25.2334   57.4727  Cl    
22   C        25.3488   32.1840   62.5418  C     
23   H        17.5571   29.3988   63.7499  H     
24   H        18.3661   29.8451   66.0983  H     
25   H        22.3256   32.2411   64.2718  H     
26   H        18.0468   27.7660   61.6985  H     
27   H        16.8910   29.0901   61.7473  H     
28   H        17.4267   26.3170   59.9048  H     
29   H        16.1846   30.0482   57.0544  H     
30   H        16.8949   30.4564   59.3093  H     
31   H        26.0754   32.8995   62.1502  H     
32   H        25.3157   31.3095   61.8935  H     
33   H        25.6363   31.8849   63.5516  H     
@<TRIPOS>BOND
     1    1    2 2
     2    2    3 2
     3    2   11 1
     4    2   22 1
     5    4    5 1
     6    4    8 1
     7    5    6 2
     8    5    9 1
     9    6    7 1
    10    6   12 1
    11    7    8 2
    12    9   10 2
    13    9   11 am
    14   12   13 1
    15   13   14 1
    16   14   15 2
    17   14   19 1
    18   15   16 1
    19   16   17 2
    20   16   21 1
    21   17   18 1
    22   17   20 1
    23   18   19 2
    24    7   23 1
    25    8   24 1
    26   11   25 1
    27   13   26 1
    28   13   27 1
    29   15   28 1
    30   18   29 1
    31   19   30 1
    32   22   31 1
    33   22   32 1
    34   22   33 1
@<TRIPOS>PROPERTY_DATA
  Total_Score	| 7.9823
  Crash		| -0.9762
  Polar		| 1.4161
  FragIndex	| 1
  FragRMSD	| 0.277

