@<TRIPOS>MOLECULE
BindingDB_50355646
 50 52 0 0 0
SMALL
NO_CHARGES


@<TRIPOS>ATOM
1    O        24.1990   34.3634   63.7811  O     
2    S        23.5165   33.6035   62.5614  S     
3    O        22.6334   34.7072   61.8289  O     
4    S        20.8288   30.7218   65.0571  S     
5    C        20.7472   30.8781   63.3388  C     
6    C        19.7325   29.9891   62.9026  C     
7    C        19.1189   29.2584   63.9574  C     
8    C        19.6009   29.5383   65.2353  C     
9    C        21.5634   31.7540   62.6252  C     
10   O        21.3963   31.9225   61.4270  O     
11   N        22.5073   32.4417   63.2574  N     
12   S        19.3358   29.7883   61.2003  S     
13   C        17.8562   28.7427   61.1564  C     
14   C        17.4068   28.4672   59.7594  C     
15   C        17.2695   27.1437   59.2742  C     
16   C        16.8041   26.8906   57.9641  C     
17   C        16.4648   27.9714   57.1151  C     
18   C        16.6052   29.2900   57.5917  C     
19   C        17.0697   29.5371   58.8979  C     
20   Cl       15.8799   27.7407   55.5311  Cl    
21   Cl       16.6594   25.2750   57.4591  Cl    
22   C        24.7927   32.9572   61.5758  C     
23   C        25.6449   31.9477   62.0765  C     
24   C        26.5970   31.3469   61.2423  C     
25   C        26.7170   31.7359   59.8941  C     
26   C        25.9290   32.8143   59.3938  C     
27   C        24.9683   33.4020   60.2459  C     
28   O        27.5642   31.0002   59.1022  O     
29   C        26.8867   30.2154   58.0938  C     
30   C        26.0760   33.2733   58.0599  C     
31   O        27.1764   32.9060   57.3413  O     
32   O        25.0744   33.9348   57.4361  O     
33   C        25.0421   34.3333   56.0608  C     
34   H        18.3785   28.5703   63.8152  H     
35   H        19.2914   29.1277   66.1208  H     
36   H        22.6279   32.2830   64.2045  H     
37   H        18.0921   27.8145   61.6882  H     
38   H        17.0471   29.2433   61.6968  H     
39   H        17.4985   26.3536   59.8843  H     
40   H        16.3637   30.0818   56.9922  H     
41   H        17.1497   30.5064   59.2229  H     
42   H        25.5505   31.6159   63.0415  H     
43   H        27.1849   30.5865   61.6063  H     
44   H        24.3777   34.1629   59.8969  H     
45   H        26.1785   29.5278   58.5564  H     
46   H        27.6378   29.6456   57.5562  H     
47   H        26.3556   30.8617   57.3689  H     
48   H        25.9444   34.8953   55.8153  H     
49   H        24.1669   34.9611   55.8812  H     
50   H        24.9746   33.4518   55.4202  H     
@<TRIPOS>BOND
     1    1    2 2
     2    2    3 2
     3    2   11 1
     4    2   22 1
     5    4    5 1
     6    4    8 1
     7    5    6 2
     8    5    9 1
     9    6    7 1
    10    6   12 1
    11    7    8 2
    12    9   10 2
    13    9   11 am
    14   12   13 1
    15   13   14 1
    16   14   15 2
    17   14   19 1
    18   15   16 1
    19   16   17 2
    20   16   21 1
    21   17   18 1
    22   17   20 1
    23   18   19 2
    24   22   23 2
    25   22   27 1
    26   23   24 1
    27   24   25 2
    28   25   26 1
    29   25   28 1
    30   26   27 2
    31   26   30 1
    32   28   29 1
    33   30   31 2
    34   30   32 1
    35   32   33 1
    36    7   34 1
    37    8   35 1
    38   11   36 1
    39   13   37 1
    40   13   38 1
    41   15   39 1
    42   18   40 1
    43   19   41 1
    44   23   42 1
    45   24   43 1
    46   27   44 1
    47   29   45 1
    48   29   46 1
    49   29   47 1
    50   33   48 1
    51   33   49 1
    52   33   50 1
@<TRIPOS>PROPERTY_DATA
  Total_Score	| 9.4236
  Crash		| -1.9159
  Polar		| 0.1986
  FragIndex	| 1
  FragRMSD	| 1.079

