@<TRIPOS>MOLECULE
BindingDB_50355649
 46 48 0 0 0
SMALL
NO_CHARGES


@<TRIPOS>ATOM
1    O        23.5301   34.7395   63.0810  O     
2    S        23.6456   33.2912   62.4358  S     
3    O        23.3163   33.5517   60.9015  O     
4    S        20.7162   30.7257   65.0334  S     
5    C        20.7307   30.7668   63.3060  C     
6    C        19.6409   29.9774   62.8727  C     
7    C        18.8741   29.4280   63.9233  C     
8    C        19.3329   29.7253   65.2066  C     
9    C        21.6701   31.4731   62.5710  C     
10   O        21.7335   31.3261   61.3517  O     
11   N        22.4698   32.3362   63.1737  N     
12   S        19.2428   29.7396   61.1871  S     
13   C        17.7807   28.6650   61.2417  C     
14   C        17.3113   28.3982   59.8487  C     
15   C        17.2042   27.0784   59.3549  C     
16   C        16.7660   26.8326   58.0353  C     
17   C        16.4149   27.9196   57.1980  C     
18   C        16.4731   29.2351   57.6999  C     
19   C        16.9228   29.4729   59.0121  C     
20   Cl       15.9177   27.7004   55.5880  Cl    
21   Cl       16.6735   25.2196   57.5129  Cl    
22   C        25.2477   32.6490   62.6359  C     
23   C        25.7396   31.6859   61.7372  C     
24   C        27.0230   31.1545   61.9135  C     
25   C        27.8464   31.5948   62.9682  C     
26   C        27.3636   32.5590   63.8959  C     
27   C        26.0558   33.0715   63.7073  C     
28   O        29.0815   31.0133   63.0868  O     
29   C        30.1222   31.7156   62.3872  C     
30   C        28.1417   33.0015   65.0037  C     
31   O        27.7345   34.0159   65.8031  O     
32   O        29.3064   32.4077   65.3586  O     
33   H        18.0327   28.8684   63.7601  H     
34   H        18.9159   29.4156   66.0890  H     
35   H        22.3749   32.4373   64.1397  H     
36   H        18.0419   27.7602   61.7902  H     
37   H        16.9595   29.1476   61.7652  H     
38   H        17.4528   26.2884   59.9536  H     
39   H        16.1987   30.0269   57.1137  H     
40   H        16.9725   30.4425   59.3480  H     
41   H        25.1691   31.3602   60.9570  H     
42   H        27.3689   30.4444   61.2647  H     
43   H        25.6748   33.7503   64.3713  H     
44   H        29.9104   31.7769   61.3153  H     
45   H        31.0491   31.1611   62.5206  H     
46   H        30.2595   32.7224   62.7927  H     
@<TRIPOS>BOND
     1    1    2 2
     2    2    3 2
     3    2   11 1
     4    2   22 1
     5    4    5 1
     6    4    8 1
     7    5    6 2
     8    5    9 1
     9    6    7 1
    10    6   12 1
    11    7    8 2
    12    9   10 2
    13    9   11 am
    14   12   13 1
    15   13   14 1
    16   14   15 2
    17   14   19 1
    18   15   16 1
    19   16   17 2
    20   16   21 1
    21   17   18 1
    22   17   20 1
    23   18   19 2
    24   22   23 2
    25   22   27 1
    26   23   24 1
    27   24   25 2
    28   25   26 1
    29   25   28 1
    30   26   27 2
    31   26   30 1
    32   28   29 1
    33   30   31 2
    34   30   32 1
    35    7   33 1
    36    8   34 1
    37   11   35 1
    38   13   36 1
    39   13   37 1
    40   15   38 1
    41   18   39 1
    42   19   40 1
    43   23   41 1
    44   24   42 1
    45   27   43 1
    46   29   44 1
    47   29   45 1
    48   29   46 1
@<TRIPOS>PROPERTY_DATA
  Total_Score	| 8.3123
  Crash		| -1.8274
  Polar		| 1.1591
  FragIndex	| 1
  FragRMSD	| 0.356

