@<TRIPOS>MOLECULE
BindingDB_50355638
 40 42 0 0 0
SMALL
NO_CHARGES


@<TRIPOS>ATOM
1    O        23.6003   34.2509   63.3069  O     
2    S        23.5236   32.8614   62.5379  S     
3    O        22.8860   33.3023   61.1485  O     
4    S        20.2878   30.5787   65.1738  S     
5    C        20.5334   30.5013   63.4683  C     
6    C        19.3491   29.9614   62.9206  C     
7    C        18.3277   29.7194   63.8653  C     
8    C        18.6855   29.9623   65.1903  C     
9    C        21.6607   30.9719   62.8140  C     
10   O        21.8879   30.6105   61.6662  O     
11   N        22.4063   31.9116   63.3745  N     
12   S        19.0586   29.8079   61.2063  S     
13   C        17.6716   28.6388   61.1917  C     
14   C        17.2376   28.3661   59.7945  C     
15   C        17.1541   27.0415   59.3084  C     
16   C        16.7659   26.7773   57.9797  C     
17   C        16.5028   27.8493   57.0943  C     
18   C        16.5610   29.1701   57.5769  C     
19   C        16.8834   29.4225   58.9213  C     
20   Cl       16.1178   27.6090   55.4580  Cl    
21   Cl       16.6104   25.1604   57.4999  Cl    
22   C        25.1475   32.2604   62.3547  C     
23   C        26.0733   32.3834   63.4142  C     
24   C        27.4109   31.9823   63.2335  C     
25   C        27.8285   31.4494   61.9986  C     
26   C        26.9054   31.3063   60.9445  C     
27   C        25.5683   31.7094   61.1215  C     
28   H        17.3803   29.4229   63.5976  H     
29   H        18.0922   29.8445   66.0120  H     
30   H        22.1920   32.1769   64.2835  H     
31   H        18.0172   27.7317   61.6948  H     
32   H        16.8231   29.0206   61.7600  H     
33   H        17.3729   26.2585   59.9280  H     
34   H        16.3576   29.9566   56.9547  H     
35   H        16.8940   30.3920   59.2478  H     
36   H        25.7865   32.7858   64.3112  H     
37   H        28.0850   32.0900   63.9966  H     
38   H        28.8040   31.1765   61.8661  H     
39   H        27.2101   30.9243   60.0439  H     
40   H        24.9138   31.6157   60.3387  H     
@<TRIPOS>BOND
     1    1    2 2
     2    2    3 2
     3    2   11 1
     4    2   22 1
     5    4    5 1
     6    4    8 1
     7    5    6 2
     8    5    9 1
     9    6    7 1
    10    6   12 1
    11    7    8 2
    12    9   10 2
    13    9   11 am
    14   12   13 1
    15   13   14 1
    16   14   15 2
    17   14   19 1
    18   15   16 1
    19   16   17 2
    20   16   21 1
    21   17   18 1
    22   17   20 1
    23   18   19 2
    24   22   23 2
    25   22   27 1
    26   23   24 1
    27   24   25 2
    28   25   26 1
    29   26   27 2
    30    7   28 1
    31    8   29 1
    32   11   30 1
    33   13   31 1
    34   13   32 1
    35   15   33 1
    36   18   34 1
    37   19   35 1
    38   23   36 1
    39   24   37 1
    40   25   38 1
    41   26   39 1
    42   27   40 1
@<TRIPOS>PROPERTY_DATA
  Total_Score	| 9.4957
  Crash		| -1.6127
  Polar		| 1.6237
  FragIndex	| 1
  FragRMSD	| 0.349

