@<TRIPOS>MOLECULE
BindingDB_50355642
 42 44 0 0 0
SMALL
NO_CHARGES


@<TRIPOS>ATOM
1    O        23.6683   34.3510   63.3312  O     
2    S        23.5831   32.9820   62.5304  S     
3    O        22.9795   33.4833   61.1464  O     
4    S        20.4930   30.6220   65.1917  S     
5    C        20.6179   30.5613   63.4735  C     
6    C        19.4302   29.9559   62.9971  C     
7    C        18.5098   29.6405   64.0248  C     
8    C        18.9420   29.9110   65.3209  C     
9    C        21.7006   31.0863   62.7813  C     
10   O        21.9131   30.7303   61.6303  O     
11   N        22.4408   32.0358   63.3374  N     
12   S        19.1025   29.7837   61.2809  S     
13   C        17.7176   28.6213   61.1533  C     
14   C        17.3171   28.3877   59.7396  C     
15   C        17.2019   27.0774   59.2194  C     
16   C        16.7701   26.8520   57.8949  C     
17   C        16.4520   27.9510   57.0630  C     
18   C        16.5631   29.2594   57.5727  C     
19   C        16.9752   29.4743   58.8997  C     
20   Cl       15.9174   27.7569   55.4645  Cl    
21   Cl       16.6290   25.2479   57.3595  Cl    
22   C        25.1932   32.3500   62.3503  C     
23   C        25.5815   31.7432   61.1373  C     
24   C        26.8973   31.2796   60.9686  C     
25   C        27.8352   31.4235   62.0065  C     
26   C        27.4582   32.0324   63.2207  C     
27   C        26.1350   32.4854   63.3934  C     
28   N        28.3622   32.1888   64.2036  N     
29   H        17.5718   29.2786   63.8668  H     
30   H        18.4207   29.7536   66.1840  H     
31   H        22.2309   32.2891   64.2484  H     
32   H        18.0114   27.6918   61.6485  H     
33   H        16.8475   29.0218   61.6678  H     
34   H        17.4179   26.2754   59.8169  H     
35   H        16.3352   30.0654   56.9849  H     
36   H        17.0288   30.4349   59.2493  H     
37   H        24.9157   31.6388   60.3679  H     
38   H        27.1731   30.8501   60.0827  H     
39   H        28.7941   31.0960   61.8716  H     
40   H        25.8644   32.9264   64.2771  H     
41   H        28.1068   32.6151   65.0367  H     
42   H        29.2739   31.8812   64.0807  H     
@<TRIPOS>BOND
     1    1    2 2
     2    2    3 2
     3    2   11 1
     4    2   22 1
     5    4    5 1
     6    4    8 1
     7    5    6 2
     8    5    9 1
     9    6    7 1
    10    6   12 1
    11    7    8 2
    12    9   10 2
    13    9   11 am
    14   12   13 1
    15   13   14 1
    16   14   15 2
    17   14   19 1
    18   15   16 1
    19   16   17 2
    20   16   21 1
    21   17   18 1
    22   17   20 1
    23   18   19 2
    24   22   23 2
    25   22   27 1
    26   23   24 1
    27   24   25 2
    28   25   26 1
    29   26   27 2
    30   26   28 1
    31    7   29 1
    32    8   30 1
    33   11   31 1
    34   13   32 1
    35   13   33 1
    36   15   34 1
    37   18   35 1
    38   19   36 1
    39   23   37 1
    40   24   38 1
    41   25   39 1
    42   27   40 1
    43   28   41 1
    44   28   42 1
@<TRIPOS>PROPERTY_DATA
  Total_Score	| 9.5521
  Crash		| -1.3255
  Polar		| 1.4123
  FragIndex	| 1
  FragRMSD	| 0.238

