@<TRIPOS>MOLECULE
BindingDB_50355654
 36 37 0 0 0
SMALL
NO_CHARGES


@<TRIPOS>ATOM
1    O        23.6658   34.3593   63.0050  O     
2    S        23.6728   32.8394   62.5261  S     
3    O        23.3912   32.9390   60.9617  O     
4    C        18.3334   29.9614   65.2963  C     
5    C        19.4863   30.4912   65.8792  C     
6    C        20.5826   30.8304   65.0707  C     
7    C        20.5662   30.6285   63.6620  C     
8    C        19.4031   30.0173   63.0848  C     
9    C        18.2909   29.7532   63.9132  C     
10   S        19.2502   29.7013   61.3607  S     
11   C        17.8288   28.5681   61.2268  C     
12   C        17.4188   28.3510   59.8127  C     
13   C        17.2381   27.0490   59.2964  C     
14   C        16.7614   26.8372   57.9842  C     
15   C        16.4499   27.9431   57.1612  C     
16   C        16.6171   29.2488   57.6703  C     
17   C        17.0870   29.4489   58.9807  C     
18   C        21.6745   31.0722   62.9143  C     
19   O        21.9522   30.5556   61.8410  O     
20   N        22.3874   32.1114   63.3355  N     
21   Cl       16.5847   25.2395   57.4393  Cl    
22   Cl       15.8644   27.7536   55.5777  Cl    
23   C        25.2981   32.1762   62.9152  C     
24   H        17.5151   29.7587   65.8766  H     
25   H        19.5181   30.6657   66.8874  H     
26   H        21.4011   31.2380   65.5353  H     
27   H        17.4045   29.4519   63.5240  H     
28   H        18.0872   27.6370   61.7454  H     
29   H        16.9544   28.9931   61.7174  H     
30   H        17.4429   26.2406   59.8897  H     
31   H        16.3968   30.0620   57.0869  H     
32   H        17.1818   30.4094   59.3266  H     
33   H        22.1279   32.5276   64.1704  H     
34   H        26.0668   32.7837   62.4359  H     
35   H        25.3788   31.1570   62.5430  H     
36   H        25.4420   32.1845   63.9990  H     
@<TRIPOS>BOND
     1    1    2 2
     2    2    3 2
     3    2   20 1
     4    2   23 1
     5    4    5 2
     6    4    9 1
     7    5    6 1
     8    6    7 2
     9    7    8 1
    10    7   18 1
    11    8    9 2
    12    8   10 1
    13   10   11 1
    14   11   12 1
    15   12   13 2
    16   12   17 1
    17   13   14 1
    18   14   15 2
    19   14   21 1
    20   15   16 1
    21   15   22 1
    22   16   17 2
    23   18   19 2
    24   18   20 am
    25    4   24 1
    26    5   25 1
    27    6   26 1
    28    9   27 1
    29   11   28 1
    30   11   29 1
    31   13   30 1
    32   16   31 1
    33   17   32 1
    34   20   33 1
    35   23   34 1
    36   23   35 1
    37   23   36 1
@<TRIPOS>PROPERTY_DATA
  Total_Score	| 7.9702
  Crash		| -2.0410
  Polar		| 1.6356
  FragIndex	| 1
  FragRMSD	| 0.414

