@<TRIPOS>MOLECULE
BindingDB_50355637
 27 28 0 0 0
SMALL
NO_CHARGES


@<TRIPOS>ATOM
1    O        20.2433   28.3248   60.8445  O     
2    S        19.2014   29.4247   61.3259  S     
3    O        19.3588   30.6858   60.3705  O     
4    S        20.6498   30.7564   65.0830  S     
5    C        20.7297   30.5980   63.3709  C     
6    C        19.5935   29.8625   62.9733  C     
7    C        18.7622   29.4837   64.0497  C     
8    C        19.1865   29.8932   65.3109  C     
9    C        21.7976   31.1212   62.6208  C     
10   O        22.7521   31.8778   63.2085  O     
11   O        21.9823   30.8151   61.3185  O     
12   C        17.5441   28.7251   61.1437  C     
13   C        17.1944   28.4305   59.7313  C     
14   C        17.1270   27.0993   59.2567  C     
15   C        16.7634   26.8217   57.9225  C     
16   C        16.4563   27.8840   57.0404  C     
17   C        16.5334   29.2104   57.5044  C     
18   C        16.8934   29.4824   58.8360  C     
19   Cl       15.9938   27.6221   55.4308  Cl    
20   Cl       16.6867   25.1973   57.4386  Cl    
21   H        17.9032   28.9535   63.9318  H     
22   H        18.7178   29.7165   66.2009  H     
23   H        17.5219   27.8149   61.7436  H     
24   H        16.8121   29.4160   61.5651  H     
25   H        17.3345   26.3214   59.8908  H     
26   H        16.3135   29.9892   56.8759  H     
27   H        16.9139   30.4544   59.1540  H     
@<TRIPOS>BOND
     1    1    2 2
     2    2    3 2
     3    2    6 1
     4    2   12 1
     5    4    5 1
     6    4    8 1
     7    5    6 2
     8    5    9 1
     9    6    7 1
    10    7    8 2
    11    9   10 2
    12    9   11 1
    13   12   13 1
    14   13   14 2
    15   13   18 1
    16   14   15 1
    17   15   16 2
    18   15   20 1
    19   16   17 1
    20   16   19 1
    21   17   18 2
    22    7   21 1
    23    8   22 1
    24   12   23 1
    25   12   24 1
    26   14   25 1
    27   17   26 1
    28   18   27 1
@<TRIPOS>PROPERTY_DATA
  Total_Score	| 6.3292
  Crash		| -1.2257
  Polar		| 0.0782
  FragIndex	| 1
  FragRMSD	| 0.519

