@<TRIPOS>MOLECULE
BindingDB_50355636
 25 26 0 0 0
SMALL
NO_CHARGES


@<TRIPOS>ATOM
1    Cl       16.5710   25.2484   57.3898  Cl    
2    Cl       15.9029   27.7544   55.4149  Cl    
3    S        19.0134   29.8911   61.1484  S     
4    S        20.3912   30.5560   65.0971  S     
5    O        22.7841   31.4078   63.3871  O     
6    O        21.8792   30.7171   61.3816  O     
7    C        19.3190   30.0393   62.8620  C     
8    C        20.5383   30.5341   63.3772  C     
9    C        17.2185   28.4401   59.7110  C     
10   C        21.7187   30.9164   62.7160  C     
11   C        18.3537   29.7767   63.8564  C     
12   C        16.7062   26.8650   57.8876  C     
13   C        17.6339   28.7159   61.1086  C     
14   C        16.3829   27.9481   57.0307  C     
15   C        17.1454   27.1255   59.2058  C     
16   C        18.7813   29.9544   65.1721  C     
17   C        16.8223   29.5072   58.8588  C     
18   C        16.4396   29.2636   57.5324  C     
19   H        17.3989   29.4748   63.6451  H     
20   H        17.9722   27.8011   61.5940  H     
21   H        16.7704   29.1035   61.6629  H     
22   H        17.4052   26.3477   59.8034  H     
23   H        18.2253   29.8047   66.0125  H     
24   H        16.8213   30.4759   59.1848  H     
25   H        16.2134   30.0757   56.9368  H     
@<TRIPOS>BOND
     1    1   12 1
     2    2   14 1
     3    3    7 1
     4    3   13 1
     5    4    8 1
     6    4   16 1
     7    5   10 2
     8    6   10 1
     9    7    8 2
    10    7   11 1
    11    8   10 1
    12    9   13 1
    13    9   15 1
    14    9   17 2
    15   11   16 2
    16   12   14 1
    17   12   15 2
    18   14   18 2
    19   17   18 1
    20   11   19 1
    21   13   20 1
    22   13   21 1
    23   15   22 1
    24   16   23 1
    25   17   24 1
    26   18   25 1
@<TRIPOS>PROPERTY_DATA
  Total_Score	| 6.5591
  Crash		| -1.0331
  Polar		| 0.4108
  FragIndex	| 1
  FragRMSD	| 0.588

