@<TRIPOS>MOLECULE
BindingDB_50258284
 38 41 0 0 0
SMALL
NO_CHARGES


@<TRIPOS>ATOM
1    C       -16.6098   34.3519   -2.5323  C     
2    C       -17.5826   35.3365   -2.7381  C     
3    N       -18.0508   36.0012   -1.6414  N     
4    C       -16.1482   34.0912   -1.2930  C     
5    C       -16.6604   34.8145   -0.2248  C     
6    N       -17.6067   35.7532   -0.4225  N     
7    C       -17.9164   36.2817    0.7827  C     
8    N       -17.1303   35.6374    1.6760  N     
9    N       -16.3781   34.7601    1.0816  N     
10   C       -18.8637   37.2889    1.1482  C     
11   C       -19.0282   37.6600    2.5077  C     
12   C       -19.9757   38.6174    2.8985  C     
13   C       -20.7847   39.2396    1.9338  C     
14   C       -20.6429   38.9268    0.5639  C     
15   C       -19.6804   37.9560    0.1966  C     
16   N       -18.0210   35.6294   -3.9864  N     
17   C       -21.5099   39.6222   -0.4349  C     
18   F       -21.2192   39.3313   -1.7447  F     
19   F       -22.8283   39.2948   -0.2384  F     
20   F       -21.3861   40.9834   -0.3042  F     
21   C       -18.9683   36.6592   -4.2947  C     
22   C       -18.9408   37.1553   -5.7569  C     
23   C       -20.3960   36.6947   -5.9478  C     
24   C       -20.4175   36.1623   -4.5019  C     
25   H       -16.2544   33.8412   -3.3052  H     
26   H       -15.4532   33.3971   -1.1451  H     
27   H       -18.4611   37.2265    3.2398  H     
28   H       -20.0650   38.8823    3.8811  H     
29   H       -21.4643   39.9390    2.2373  H     
30   H       -19.5786   37.7355   -0.7894  H     
31   H       -17.6351   35.1294   -4.7241  H     
32   H       -18.9203   37.5084   -3.6036  H     
33   H       -18.8249   38.2396   -5.8287  H     
34   H       -18.2310   36.6221   -6.3961  H     
35   H       -21.0906   37.5224   -6.1107  H     
36   H       -20.4954   35.9071   -6.7033  H     
37   H       -20.5338   35.0749   -4.4599  H     
38   H       -21.1379   36.6810   -3.8666  H     
@<TRIPOS>BOND
     1    1    2 1
     2    1    4 2
     3    2    3 2
     4    2   16 1
     5    3    6 1
     6    4    5 1
     7    5    6 1
     8    5    9 2
     9    6    7 1
    10    7    8 2
    11    7   10 1
    12    8    9 1
    13   10   11 2
    14   10   15 1
    15   11   12 1
    16   12   13 2
    17   13   14 1
    18   14   15 2
    19   14   17 1
    20   16   21 1
    21   17   18 1
    22   17   19 1
    23   17   20 1
    24   21   22 1
    25   21   24 1
    26   22   23 1
    27   23   24 1
    28    1   25 1
    29    4   26 1
    30   11   27 1
    31   12   28 1
    32   13   29 1
    33   15   30 1
    34   16   31 1
    35   21   32 1
    36   22   33 1
    37   22   34 1
    38   23   35 1
    39   23   36 1
    40   24   37 1
    41   24   38 1
@<TRIPOS>PROPERTY_DATA
  Total_Score	| 6.2082
  Crash		| -0.3221
  Polar		| 1.2701
  FragIndex	| 1
  FragRMSD	| 0.534

