@<TRIPOS>MOLECULE
BindingDB_50258853
 35 38 0 0 0
SMALL
NO_CHARGES


@<TRIPOS>ATOM
1    C       -16.7614   34.3599   -2.5898  C     
2    C       -17.7301   35.3519   -2.7700  C     
3    N       -18.1643   36.0167   -1.6612  N     
4    C       -16.2782   34.0871   -1.3606  C     
5    C       -16.7650   34.8055   -0.2792  C     
6    N       -17.7041   35.7525   -0.4560  N     
7    C       -17.9810   36.2768    0.7547  C     
8    N       -17.1843   35.6235    1.6311  N     
9    N       -16.4554   34.7394    1.0198  N     
10   C       -18.8975   37.3088    1.1296  C     
11   C       -18.9639   37.7439    2.4769  C     
12   C       -19.8537   38.7552    2.8714  C     
13   C       -20.6943   39.3599    1.9244  C     
14   C       -20.6655   38.9600    0.5695  C     
15   C       -19.7675   37.9298    0.1980  C     
16   C       -21.5757   39.6245   -0.4073  C     
17   F       -21.4500   39.1909   -1.6997  F     
18   F       -22.8848   39.4159   -0.0460  F     
19   F       -21.3377   40.9773   -0.4312  F     
20   N       -18.2267   35.6194   -4.0022  N     
21   C       -19.2447   36.5862   -4.2699  C     
22   C       -20.4725   36.1027   -5.0545  C     
23   C       -20.5957   36.3804   -3.5580  C     
24   H       -16.4210   33.8532   -3.3718  H     
25   H       -15.5863   33.3879   -1.2271  H     
26   H       -18.3626   37.3280    3.1933  H     
27   H       -19.8858   39.0525    3.8485  H     
28   H       -21.3334   40.0972    2.2311  H     
29   H       -19.7662   37.6299   -0.7705  H     
30   H       -17.8826   35.1058   -4.7485  H     
31   H       -18.9706   37.6276   -4.4509  H     
32   H       -20.9480   36.8423   -5.7009  H     
33   H       -20.4970   35.0491   -5.3340  H     
34   H       -20.6721   35.5008   -2.9162  H     
35   H       -21.1164   37.2876   -3.2844  H     
@<TRIPOS>BOND
     1    1    2 1
     2    1    4 2
     3    2    3 2
     4    2   20 1
     5    3    6 1
     6    4    5 1
     7    5    6 1
     8    5    9 2
     9    6    7 1
    10    7    8 2
    11    7   10 1
    12    8    9 1
    13   10   11 2
    14   10   15 1
    15   11   12 1
    16   12   13 2
    17   13   14 1
    18   14   15 2
    19   14   16 1
    20   16   17 1
    21   16   18 1
    22   16   19 1
    23   20   21 1
    24   21   22 1
    25   21   23 1
    26   22   23 1
    27    1   24 1
    28    4   25 1
    29   11   26 1
    30   12   27 1
    31   13   28 1
    32   15   29 1
    33   20   30 1
    34   21   31 1
    35   22   32 1
    36   22   33 1
    37   23   34 1
    38   23   35 1
@<TRIPOS>PROPERTY_DATA
  Total_Score	| 6.5451
  Crash		| -0.3786
  Polar		| 1.2990
  FragIndex	| 1
  FragRMSD	| 0.284

