@<TRIPOS>MOLECULE
BindingDB_50258285
 42 45 0 0 0
SMALL
NO_CHARGES


@<TRIPOS>ATOM
1    C       -16.5551   34.2189   -2.5837  C     
2    C       -17.5719   35.1435   -2.8557  C     
3    N       -18.1087   35.8263   -1.7999  N     
4    C       -16.0807   34.0569   -1.3363  C     
5    C       -16.6318   34.8064   -0.3210  C     
6    N       -17.6429   35.6714   -0.5538  N     
7    C       -17.8907   36.2708    0.6403  C     
8    N       -17.0308   35.7232    1.5281  N     
9    N       -16.2720   34.8474    0.9628  N     
10   C       -18.8045   37.2950    1.0497  C     
11   C       -18.8785   37.6902    2.4105  C     
12   C       -19.7840   38.6742    2.8395  C     
13   C       -20.6455   39.2837    1.9186  C     
14   C       -20.6126   38.9230    0.5539  C     
15   C       -19.6876   37.9279    0.1488  C     
16   C       -21.4988   39.5882   -0.4383  C     
17   F       -22.0351   38.6876   -1.3236  F     
18   F       -22.5686   40.2445    0.1220  F     
19   F       -20.7741   40.5193   -1.1368  F     
20   N       -17.8698   35.3628   -4.1594  N     
21   C       -18.6644   36.3827   -4.7809  C     
22   C       -20.1956   36.2197   -4.5872  C     
23   C       -20.6994   36.9187   -3.3081  C     
24   O       -20.2595   38.2872   -3.2273  O     
25   C       -18.8450   38.5594   -3.3262  C     
26   C       -18.1804   37.8435   -4.5334  C     
27   H       -16.1372   33.7078   -3.3257  H     
28   H       -15.3246   33.4412   -1.1513  H     
29   H       -18.2689   37.2701    3.1144  H     
30   H       -19.8246   38.9423    3.8256  H     
31   H       -21.2854   40.0051    2.2552  H     
32   H       -19.6791   37.6453   -0.8239  H     
33   H       -17.3880   34.7942   -4.7840  H     
34   H       -18.4922   36.1952   -5.8466  H     
35   H       -20.7090   36.6732   -5.4402  H     
36   H       -20.4660   35.1620   -4.5636  H     
37   H       -21.7910   36.9248   -3.3198  H     
38   H       -20.3939   36.3528   -2.4323  H     
39   H       -18.7721   39.6314   -3.4964  H     
40   H       -18.2972   38.3786   -2.3824  H     
41   H       -17.0954   37.8645   -4.4168  H     
42   H       -18.4208   38.4255   -5.4262  H     
@<TRIPOS>BOND
     1    1    2 1
     2    1    4 2
     3    2    3 2
     4    2   20 1
     5    3    6 1
     6    4    5 1
     7    5    6 1
     8    5    9 2
     9    6    7 1
    10    7    8 2
    11    7   10 1
    12    8    9 1
    13   10   11 2
    14   10   15 1
    15   11   12 1
    16   12   13 2
    17   13   14 1
    18   14   15 2
    19   14   16 1
    20   16   17 1
    21   16   18 1
    22   16   19 1
    23   20   21 1
    24   21   22 1
    25   21   26 1
    26   22   23 1
    27   23   24 1
    28   24   25 1
    29   25   26 1
    30    1   27 1
    31    4   28 1
    32   11   29 1
    33   12   30 1
    34   13   31 1
    35   15   32 1
    36   20   33 1
    37   21   34 1
    38   22   35 1
    39   22   36 1
    40   23   37 1
    41   23   38 1
    42   25   39 1
    43   25   40 1
    44   26   41 1
    45   26   42 1
@<TRIPOS>PROPERTY_DATA
  Total_Score	| 6.4870
  Crash		| -0.6421
  Polar		| 1.2293
  FragIndex	| 1
  FragRMSD	| 0.837

