@<TRIPOS>MOLECULE
BindingDB_50258854
 35 38 0 0 0
SMALL
NO_CHARGES


@<TRIPOS>ATOM
1    C       -19.8038   36.9415   -0.6516  C     
2    C       -19.1757   36.8648   -1.8993  C     
3    N       -17.9475   36.2792   -1.9670  N     
4    C       -19.2134   36.4157    0.4493  C     
5    C       -17.9792   35.8109    0.3078  C     
6    N       -17.3790   35.7850   -0.8922  N     
7    C       -16.2081   35.1541   -0.7460  C     
8    N       -16.1321   34.7699    0.5461  N     
9    N       -17.1912   35.1731    1.1895  N     
10   C       -15.2230   34.9487   -1.7425  C     
11   C       -14.4323   33.7794   -1.7257  C     
12   C       -13.4317   33.5742   -2.6910  C     
13   C       -13.1786   34.5269   -3.7041  C     
14   C       -13.9717   35.6988   -3.7216  C     
15   C       -14.9758   35.9065   -2.7555  C     
16   N       -19.7728   37.3604   -3.0094  N     
17   C       -19.1984   37.3737   -4.3129  C     
18   C       -19.1168   38.7706   -4.9511  C     
19   C       -17.8353   38.0342   -4.5732  C     
20   C       -12.0961   34.2704   -4.6925  C     
21   F       -11.9274   35.2631   -5.6319  F     
22   F       -10.8928   34.1322   -4.0410  F     
23   F       -12.3569   33.1082   -5.3818  F     
24   H       -20.7006   37.3602   -0.5726  H     
25   H       -19.6640   36.4495    1.3284  H     
26   H       -14.5715   33.0714   -1.0008  H     
27   H       -12.8764   32.7190   -2.6462  H     
28   H       -13.8136   36.4275   -4.4238  H     
29   H       -15.4928   36.7889   -2.7805  H     
30   H       -20.6559   37.7440   -2.9093  H     
31   H       -19.5205   36.6093   -5.0234  H     
32   H       -19.2823   38.8353   -6.0291  H     
33   H       -19.3308   39.6364   -4.3200  H     
34   H       -17.3103   38.4222   -3.6934  H     
35   H       -17.2603   37.6088   -5.3957  H     
@<TRIPOS>BOND
     1    1    2 1
     2    1    4 2
     3    2    3 2
     4    2   16 1
     5    3    6 1
     6    4    5 1
     7    5    6 1
     8    5    9 2
     9    6    7 1
    10    7    8 2
    11    7   10 1
    12    8    9 1
    13   10   11 2
    14   10   15 1
    15   11   12 1
    16   12   13 2
    17   13   14 1
    18   13   20 1
    19   14   15 2
    20   16   17 1
    21   17   18 1
    22   17   19 1
    23   18   19 1
    24   20   21 1
    25   20   22 1
    26   20   23 1
    27    1   24 1
    28    4   25 1
    29   11   26 1
    30   12   27 1
    31   14   28 1
    32   15   29 1
    33   16   30 1
    34   17   31 1
    35   18   32 1
    36   18   33 1
    37   19   34 1
    38   19   35 1
@<TRIPOS>PROPERTY_DATA
  Total_Score	| 3.1329
  Crash		| -1.3930
  Polar		| 1.2428
  FragIndex	| 1
  FragRMSD	| 1.233

