@<TRIPOS>MOLECULE
BindingDB_50258287
 44 47 0 0 0
SMALL
NO_CHARGES


@<TRIPOS>ATOM
1    C       -16.7323   34.6024   -2.7836  C     
2    C       -17.6199   35.6786   -2.9084  C     
3    N       -18.0779   36.2573   -1.7612  N     
4    C       -16.3244   34.1836   -1.5687  C     
5    C       -16.8252   34.8217   -0.4443  C     
6    N       -17.7076   35.8323   -0.5678  N     
7    C       -18.0208   36.2491    0.6774  C     
8    N       -17.2918   35.4823    1.5214  N     
9    N       -16.5760   34.6214    0.8568  N     
10   C       -18.9152   37.2811    1.1084  C     
11   C       -18.9332   37.7004    2.4626  C     
12   C       -19.7992   38.7208    2.8982  C     
13   C       -20.6595   39.3495    1.9853  C     
14   C       -20.6920   38.9534    0.6278  C     
15   C       -19.8211   37.9129    0.2180  C     
16   C       -21.6250   39.6402   -0.3125  C     
17   F       -21.6169   39.1385   -1.5918  F     
18   F       -22.9188   39.5308    0.1362  F     
19   F       -21.3024   40.9734   -0.4000  F     
20   N       -17.9913   36.1051   -4.1365  N     
21   C       -18.9132   37.1675   -4.4224  C     
22   C       -18.3492   38.5757   -4.0673  C     
23   C       -19.3336   39.7031   -4.4790  C     
24   N       -19.7117   39.6151   -5.9106  N     
25   C       -20.2283   38.2898   -6.3276  C     
26   C       -19.2797   37.1270   -5.9326  C     
27   H       -16.3956   34.1405   -3.5968  H     
28   H       -15.6892   33.4205   -1.4783  H     
29   H       -18.3123   37.2728    3.1544  H     
30   H       -19.7984   39.0089    3.8797  H     
31   H       -21.2724   40.1027    2.3173  H     
32   H       -19.8648   37.6097   -0.7496  H     
33   H       -17.6354   35.6151   -4.8964  H     
34   H       -19.8285   36.9894   -3.8469  H     
35   H       -18.1611   38.6504   -2.9932  H     
36   H       -17.4020   38.7319   -4.5919  H     
37   H       -20.2414   39.6508   -3.8777  H     
38   H       -18.8729   40.6772   -4.3071  H     
39   H       -20.4390   40.3135   -6.0986  H     
40   H       -18.8895   39.8500   -6.4748  H     
41   H       -21.2098   38.1339   -5.8750  H     
42   H       -20.3570   38.2953   -7.4138  H     
43   H       -18.3665   37.2009   -6.5299  H     
44   H       -19.7630   36.1749   -6.1675  H     
@<TRIPOS>BOND
     1    1    2 1
     2    1    4 2
     3    2    3 2
     4    2   20 1
     5    3    6 1
     6    4    5 1
     7    5    6 1
     8    5    9 2
     9    6    7 1
    10    7    8 2
    11    7   10 1
    12    8    9 1
    13   10   11 2
    14   10   15 1
    15   11   12 1
    16   12   13 2
    17   13   14 1
    18   14   15 2
    19   14   16 1
    20   16   17 1
    21   16   18 1
    22   16   19 1
    23   20   21 1
    24   21   22 1
    25   21   26 1
    26   22   23 1
    27   23   24 1
    28   24   25 1
    29   25   26 1
    30    1   27 1
    31    4   28 1
    32   11   29 1
    33   12   30 1
    34   13   31 1
    35   15   32 1
    36   20   33 1
    37   21   34 1
    38   22   35 1
    39   22   36 1
    40   23   37 1
    41   23   38 1
    42   24   39 1
    43   24   40 1
    44   25   41 1
    45   25   42 1
    46   26   43 1
    47   26   44 1
@<TRIPOS>PROPERTY_DATA
  Total_Score	| 7.2088
  Crash		| -0.3114
  Polar		| 2.9557
  FragIndex	| 1
  FragRMSD	| 0.309

