@<TRIPOS>MOLECULE
BindingDB_50258426
 50 53 0 0 0
SMALL
NO_CHARGES


@<TRIPOS>ATOM
1    C       -16.4550   34.5039   -2.6955  C     
2    C       -17.3240   35.5975   -2.9607  C     
3    N       -17.8580   36.2071   -1.8478  N     
4    C       -16.1387   34.1435   -1.4383  C     
5    C       -16.6977   34.8378   -0.3895  C     
6    N       -17.5643   35.8407   -0.6102  N     
7    C       -17.9331   36.3186    0.5984  C     
8    N       -17.2587   35.5794    1.5050  N     
9    N       -16.5155   34.6879    0.9250  N     
10   C       -18.8391   37.3553    0.9808  C     
11   C       -18.9109   37.7644    2.3359  C     
12   C       -19.8255   38.7418    2.7524  C     
13   C       -20.6779   39.3491    1.8208  C     
14   C       -20.6294   38.9876    0.4542  C     
15   C       -19.7141   37.9794    0.0557  C     
16   C       -21.5422   39.6769   -0.4998  C     
17   F       -21.4014   39.2943   -1.8089  F     
18   F       -22.8525   39.4295   -0.1725  F     
19   F       -21.3327   41.0369   -0.4609  F     
20   N       -17.5795   36.0854   -4.2350  N     
21   C       -18.5412   37.1734   -4.4427  C     
22   C       -17.8656   38.5546   -4.1992  C     
23   C       -18.9158   39.6942   -4.2267  C     
24   N       -19.6565   39.7264   -5.5266  N     
25   C       -20.3258   38.4150   -5.8237  C     
26   C       -19.3298   37.2223   -5.7926  C     
27   C       -16.7971   35.5960   -5.3672  C     
28   C       -20.6072   40.8725   -5.6075  C     
29   H       -16.0577   33.9654   -3.4309  H     
30   H       -15.5178   33.3873   -1.2543  H     
31   H       -18.2980   37.3540    3.0455  H     
32   H       -19.8698   39.0131    3.7366  H     
33   H       -21.3317   40.0640    2.1424  H     
34   H       -19.7025   37.6811   -0.9194  H     
35   H       -19.3327   37.0699   -3.6911  H     
36   H       -17.3679   38.5566   -3.2223  H     
37   H       -17.1149   38.7463   -4.9707  H     
38   H       -19.6118   39.5557   -3.3932  H     
39   H       -18.3990   40.6411   -4.0720  H     
40   H       -18.9455   39.8914   -6.2518  H     
41   H       -21.1297   38.2296   -5.1075  H     
42   H       -20.7655   38.4553   -6.8247  H     
43   H       -18.6638   37.3591   -6.6506  H     
44   H       -19.8735   36.2873   -5.9318  H     
45   H       -15.7238   35.6451   -5.1387  H     
46   H       -16.9241   36.1699   -6.2907  H     
47   H       -17.0796   34.5557   -5.5814  H     
48   H       -21.3859   40.7941   -4.8439  H     
49   H       -21.0821   40.9042   -6.5918  H     
50   H       -20.0689   41.8117   -5.4692  H     
@<TRIPOS>BOND
     1    1    2 1
     2    1    4 2
     3    2    3 2
     4    2   20 1
     5    3    6 1
     6    4    5 1
     7    5    6 1
     8    5    9 2
     9    6    7 1
    10    7    8 2
    11    7   10 1
    12    8    9 1
    13   10   11 2
    14   10   15 1
    15   11   12 1
    16   12   13 2
    17   13   14 1
    18   14   15 2
    19   14   16 1
    20   16   17 1
    21   16   18 1
    22   16   19 1
    23   20   21 1
    24   20   27 1
    25   21   22 1
    26   21   26 1
    27   22   23 1
    28   23   24 1
    29   24   25 1
    30   24   28 1
    31   25   26 1
    32    1   29 1
    33    4   30 1
    34   11   31 1
    35   12   32 1
    36   13   33 1
    37   15   34 1
    38   21   35 1
    39   22   36 1
    40   22   37 1
    41   23   38 1
    42   23   39 1
    43   24   40 1
    44   25   41 1
    45   25   42 1
    46   26   43 1
    47   26   44 1
    48   27   45 1
    49   27   46 1
    50   27   47 1
    51   28   48 1
    52   28   49 1
    53   28   50 1
@<TRIPOS>PROPERTY_DATA
  Total_Score	| 7.9817
  Crash		| -0.5101
  Polar		| 3.1198
  FragIndex	| 1
  FragRMSD	| 0.396

