@<TRIPOS>MOLECULE
BindingDB_50258779
 32 35 0 0 0
SMALL
NO_CHARGES


@<TRIPOS>ATOM
1    C       -16.4611   34.2416   -2.5223  C     
2    C       -17.4982   35.1522   -2.7657  C     
3    N       -18.0213   35.8250   -1.7007  N     
4    C       -16.0136   34.0391   -1.2659  C     
5    C       -16.5859   34.7627   -0.2308  C     
6    N       -17.5764   35.6417   -0.4718  N     
7    C       -17.9271   36.1914    0.7106  C     
8    N       -17.1275   35.6101    1.6348  N     
9    N       -16.3270   34.7518    1.0798  N     
10   C       -18.9184   37.1759    1.0273  C     
11   C       -19.0530   37.6608    2.3571  C     
12   C       -20.0147   38.6329    2.6889  C     
13   C       -20.8721   39.1437    1.6988  C     
14   C       -20.7639   38.6745    0.3802  C     
15   C       -19.7997   37.7058    0.0510  C     
16   N       -17.9676   35.3342   -4.0223  N     
17   C       -19.0730   36.1730   -4.3287  C     
18   C       -19.5317   36.1366   -5.7914  C     
19   C       -20.4009   35.4941   -4.7048  C     
20   F       -21.7650   40.0471    1.9923  F     
21   H       -16.0590   33.7322   -3.2733  H     
22   H       -15.2850   33.3863   -1.0829  H     
23   H       -18.4482   37.3154    3.1067  H     
24   H       -20.0872   38.9676    3.6548  H     
25   H       -21.3846   39.0422   -0.3477  H     
26   H       -19.7623   37.4057   -0.9202  H     
27   H       -17.5609   34.8268   -4.7440  H     
28   H       -19.0979   37.1901   -3.9284  H     
29   H       -19.9626   37.0529   -6.2052  H     
30   H       -19.0640   35.4171   -6.4642  H     
31   H       -20.3973   34.4029   -4.6489  H     
32   H       -21.2821   36.0455   -4.3749  H     
@<TRIPOS>BOND
     1    1    2 1
     2    1    4 2
     3    2    3 2
     4    2   16 1
     5    3    6 1
     6    4    5 1
     7    5    6 1
     8    5    9 2
     9    6    7 1
    10    7    8 2
    11    7   10 1
    12    8    9 1
    13   10   11 2
    14   10   15 1
    15   11   12 1
    16   12   13 2
    17   13   14 1
    18   13   20 1
    19   14   15 2
    20   16   17 1
    21   17   18 1
    22   17   19 1
    23   18   19 1
    24    1   21 1
    25    4   22 1
    26   11   23 1
    27   12   24 1
    28   14   25 1
    29   15   26 1
    30   16   27 1
    31   17   28 1
    32   18   29 1
    33   18   30 1
    34   19   31 1
    35   19   32 1
@<TRIPOS>PROPERTY_DATA
  Total_Score	| 5.3238
  Crash		| -0.4372
  Polar		| 1.2345
  FragIndex	| 1
  FragRMSD	| 0.277

