@<TRIPOS>MOLECULE
BindingDB_50258813
 35 38 0 0 0
SMALL
NO_CHARGES


@<TRIPOS>ATOM
1    C       -16.5034   34.1655   -2.4970  C     
2    C       -17.5129   35.0786   -2.8128  C     
3    N       -18.0416   35.8179   -1.7914  N     
4    C       -16.0666   34.0353   -1.2306  C     
5    C       -16.6177   34.8492   -0.2571  C     
6    N       -17.5913   35.7390   -0.5494  N     
7    C       -17.8927   36.3965    0.5982  C     
8    N       -17.0726   35.8488    1.5305  N     
9    N       -16.3170   34.9217    1.0379  N     
10   C       -18.8453   37.4245    0.9674  C     
11   C       -19.0503   37.5950    2.3701  C     
12   C       -19.9351   38.5459    2.8975  C     
13   C       -20.6899   39.3412    2.0362  C     
14   C       -20.5198   39.2097    0.6547  C     
15   C       -19.5820   38.2997    0.0903  C     
16   N       -17.8923   35.2193   -4.1026  N     
17   C       -18.8093   36.2008   -4.5707  C     
18   C       -19.2776   35.9870   -6.0191  C     
19   C       -20.2566   35.7789   -4.8589  C     
20   C       -19.4610   38.3392   -1.3999  C     
21   F       -19.8581   39.5174   -1.9934  F     
22   F       -18.1645   38.2081   -1.8261  F     
23   F       -20.2873   37.3770   -1.9203  F     
24   H       -16.0854   33.6191   -3.2124  H     
25   H       -15.3463   33.3902   -1.0008  H     
26   H       -18.5618   37.0118    3.0543  H     
27   H       -20.0475   38.6459    3.9073  H     
28   H       -21.3630   40.0134    2.4108  H     
29   H       -21.0990   39.8108    0.0638  H     
30   H       -17.4722   34.6430   -4.7610  H     
31   H       -18.6051   37.2551   -4.3743  H     
32   H       -19.4567   36.8856   -6.6127  H     
33   H       -18.9488   35.0739   -6.5196  H     
34   H       -20.5088   34.7435   -4.6201  H     
35   H       -21.0018   36.5611   -4.7134  H     
@<TRIPOS>BOND
     1    1    2 1
     2    1    4 2
     3    2    3 2
     4    2   16 1
     5    3    6 1
     6    4    5 1
     7    5    6 1
     8    5    9 2
     9    6    7 1
    10    7    8 2
    11    7   10 1
    12    8    9 1
    13   10   11 2
    14   10   15 1
    15   11   12 1
    16   12   13 2
    17   13   14 1
    18   14   15 2
    19   15   20 1
    20   16   17 1
    21   17   18 1
    22   17   19 1
    23   18   19 1
    24   20   21 1
    25   20   22 1
    26   20   23 1
    27    1   24 1
    28    4   25 1
    29   11   26 1
    30   12   27 1
    31   13   28 1
    32   14   29 1
    33   16   30 1
    34   17   31 1
    35   18   32 1
    36   18   33 1
    37   19   34 1
    38   19   35 1
@<TRIPOS>PROPERTY_DATA
  Total_Score	| 5.2894
  Crash		| -0.7791
  Polar		| 1.1576
  FragIndex	| 1
  FragRMSD	| 0.329

