@<TRIPOS>MOLECULE
BindingDB_50258425
 47 50 0 0 0
SMALL
NO_CHARGES


@<TRIPOS>ATOM
1    C       -16.7496   34.3661   -2.6786  C     
2    C       -17.6517   35.4329   -2.9312  C     
3    N       -18.0544   36.1304   -1.8191  N     
4    C       -16.3025   34.0813   -1.4439  C     
5    C       -16.7607   34.8396   -0.3942  C     
6    N       -17.6392   35.8408   -0.5892  N     
7    C       -17.9040   36.3488    0.6366  C     
8    N       -17.1562   35.6396    1.5120  N     
9    N       -16.4669   34.7324    0.9031  N     
10   C       -18.8073   37.3654    1.0727  C     
11   C       -18.7887   37.7974    2.4245  C     
12   C       -19.7238   38.7252    2.9084  C     
13   C       -20.6999   39.2466    2.0479  C     
14   C       -20.7491   38.8573    0.6907  C     
15   C       -19.7886   37.9257    0.2194  C     
16   C       -21.7643   39.4233   -0.2370  C     
17   F       -21.1406   40.2789   -1.1054  F     
18   F       -22.3896   38.4294   -0.9541  F     
19   F       -22.7578   40.1485    0.3752  F     
20   N       -18.1054   35.7499   -4.1992  N     
21   C       -18.7589   37.0142   -4.5483  C     
22   C       -20.2867   37.0019   -4.2574  C     
23   C       -20.9811   38.2418   -4.8879  C     
24   C       -20.3040   39.5770   -4.4817  C     
25   C       -18.7642   39.5715   -4.6616  C     
26   C       -18.1069   38.3251   -4.0068  C     
27   C       -18.0039   34.7554   -5.2606  C     
28   H       -16.3824   33.8250   -3.4210  H     
29   H       -15.6559   33.3428   -1.2866  H     
30   H       -18.0971   37.4348    3.0845  H     
31   H       -19.7011   39.0136    3.8899  H     
32   H       -21.3682   39.9212    2.4235  H     
33   H       -19.8360   37.6338   -0.7556  H     
34   H       -18.6724   37.1365   -5.6346  H     
35   H       -20.7346   36.0991   -4.6808  H     
36   H       -20.4621   36.9878   -3.1793  H     
37   H       -20.9614   38.1490   -5.9778  H     
38   H       -22.0281   38.2691   -4.5765  H     
39   H       -20.7329   40.3935   -5.0690  H     
40   H       -20.5251   39.7722   -3.4351  H     
41   H       -18.5263   39.5924   -5.7287  H     
42   H       -18.3499   40.4761   -4.2127  H     
43   H       -18.2264   38.4062   -2.9264  H     
44   H       -17.0371   38.3232   -4.2293  H     
45   H       -16.9579   34.5914   -5.5306  H     
46   H       -18.5316   35.0151   -6.1816  H     
47   H       -18.4475   33.8173   -4.9182  H     
@<TRIPOS>BOND
     1    1    2 1
     2    1    4 2
     3    2    3 2
     4    2   20 1
     5    3    6 1
     6    4    5 1
     7    5    6 1
     8    5    9 2
     9    6    7 1
    10    7    8 2
    11    7   10 1
    12    8    9 1
    13   10   11 2
    14   10   15 1
    15   11   12 1
    16   12   13 2
    17   13   14 1
    18   14   15 2
    19   14   16 1
    20   16   17 1
    21   16   18 1
    22   16   19 1
    23   20   21 1
    24   20   27 1
    25   21   22 1
    26   21   26 1
    27   22   23 1
    28   23   24 1
    29   24   25 1
    30   25   26 1
    31    1   28 1
    32    4   29 1
    33   11   30 1
    34   12   31 1
    35   13   32 1
    36   15   33 1
    37   21   34 1
    38   22   35 1
    39   22   36 1
    40   23   37 1
    41   23   38 1
    42   24   39 1
    43   24   40 1
    44   25   41 1
    45   25   42 1
    46   26   43 1
    47   26   44 1
    48   27   45 1
    49   27   46 1
    50   27   47 1
@<TRIPOS>PROPERTY_DATA
  Total_Score	| 6.2945
  Crash		| -1.3120
  Polar		| 1.3290
  FragIndex	| 1
  FragRMSD	| 0.723

