@<TRIPOS>MOLECULE
BindingDB_50383265
 44 47 0 0 0
SMALL
NO_CHARGES


@<TRIPOS>ATOM
1    N       -17.7978   35.9318   -2.2003  N     
2    C       -17.0891   35.3995   -3.2573  C     
3    C       -16.1775   34.3762   -2.9607  C     
4    C       -15.9551   33.9682   -1.7003  C     
5    N       -17.5244   35.5575   -0.9476  N     
6    C       -16.6210   34.6033   -0.6813  C     
7    N       -16.4410   34.4907    0.6383  N     
8    N       -17.1983   35.3789    1.1956  N     
9    C       -17.8714   36.0610    0.2484  C     
10   N       -17.1217   35.7636   -4.5702  N     
11   C       -17.8643   36.7078   -5.3588  C     
12   C       -19.2234   36.1291   -5.8422  C     
13   C       -20.2392   36.1783   -4.6840  C     
14   C       -20.4820   37.6472   -4.2359  C     
15   C       -19.1787   38.3783   -3.8046  C     
16   C       -17.9989   38.1618   -4.8005  C     
17   C       -18.7015   37.1616    0.5310  C     
18   C       -19.7922   37.5008   -0.3136  C     
19   C       -20.6236   38.5948   -0.0075  C     
20   C       -20.3654   39.3918    1.1305  C     
21   C       -19.2660   39.0558    1.9629  C     
22   C       -18.4523   37.9519    1.6757  C     
23   C       -21.2511   40.5401    1.4304  C     
24   F       -20.8495   41.2834    2.5066  F     
25   F       -21.3118   41.3853    0.3521  F     
26   F       -22.5077   40.0639    1.6921  F     
27   H       -15.6687   33.9313   -3.6849  H     
28   H       -15.2815   33.2658   -1.4983  H     
29   H       -16.4901   35.2487   -5.1058  H     
30   H       -17.2576   36.7980   -6.2683  H     
31   H       -19.5942   36.7101   -6.7002  H     
32   H       -19.0973   35.0965   -6.1743  H     
33   H       -21.1837   35.7041   -4.9659  H     
34   H       -19.7830   35.5845   -3.8822  H     
35   H       -20.9297   38.1834   -5.0721  H     
36   H       -21.1961   37.6817   -3.4127  H     
37   H       -19.3981   39.4520   -3.7295  H     
38   H       -18.8605   38.0574   -2.8037  H     
39   H       -17.0523   38.4713   -4.3202  H     
40   H       -18.1709   38.8354   -5.6500  H     
41   H       -20.0055   36.9520   -1.1535  H     
42   H       -21.4285   38.7994   -0.6053  H     
43   H       -19.0426   39.6045    2.8034  H     
44   H       -17.6609   37.7479    2.3068  H     
@<TRIPOS>BOND
     1    1    2 2
     2    1    5 1
     3    2    3 1
     4    2   10 1
     5    3    4 2
     6    4    6 1
     7    5    6 1
     8    5    9 1
     9    6    7 2
    10    7    8 1
    11    8    9 2
    12    9   17 1
    13   10   11 1
    14   11   12 1
    15   11   16 1
    16   12   13 1
    17   13   14 1
    18   14   15 1
    19   15   16 1
    20   17   18 2
    21   17   22 1
    22   18   19 1
    23   19   20 2
    24   20   21 1
    25   20   23 1
    26   21   22 2
    27   23   24 1
    28   23   25 1
    29   23   26 1
    30    3   27 1
    31    4   28 1
    32   10   29 1
    33   11   30 1
    34   12   31 1
    35   12   32 1
    36   13   33 1
    37   13   34 1
    38   14   35 1
    39   14   36 1
    40   15   37 1
    41   15   38 1
    42   16   39 1
    43   16   40 1
    44   18   41 1
    45   19   42 1
    46   21   43 1
    47   22   44 1
@<TRIPOS>PROPERTY_DATA
  Total_Score	| 4.2470
  Crash		| -1.8428
  Polar		| 1.3818
  FragIndex	| 1
  FragRMSD	| 1.027

