@<TRIPOS>MOLECULE
BindingDB_26668
 44 47 0 0 0
SMALL
NO_CHARGES


@<TRIPOS>ATOM
1    F       -22.8075   39.8435    0.0628  F     
2    C       -21.6102   39.4554   -0.4976  C     
3    F       -21.0226   40.5724   -1.0439  F     
4    F       -21.9518   38.5802   -1.5005  F     
5    C       -20.6646   38.8464    0.4810  C     
6    C       -19.6625   37.9299    0.0662  C     
7    C       -18.7696   37.3274    0.9830  C     
8    C       -18.8773   37.7092    2.3474  C     
9    C       -19.8431   38.6326    2.7761  C     
10   C       -20.7283   39.1979    1.8494  C     
11   C       -17.8386   36.3155    0.5925  C     
12   N       -17.0915   35.6771    1.5210  N     
13   N       -16.3472   34.7752    0.9801  N     
14   C       -16.6046   34.8090   -0.3268  C     
15   C       -16.0540   34.0269   -1.3144  C     
16   C       -16.4382   34.2430   -2.5819  C     
17   C       -17.3737   35.2387   -2.9063  C     
18   N       -17.6200   35.3661   -4.2344  N     
19   C       -18.4013   36.2636   -5.0345  C     
20   C       -19.9452   36.1507   -4.8475  C     
21   C       -20.5256   37.1488   -3.8211  C     
22   C       -20.0472   38.5957   -4.0967  C     
23   C       -18.5035   38.6896   -4.0702  C     
24   C       -17.8639   37.7272   -5.0978  C     
25   N       -17.8974   35.9761   -1.8727  N     
26   N       -17.5235   35.7595   -0.6048  N     
27   H       -19.6159   37.6652   -0.9145  H     
28   H       -18.2547   37.3152    3.0573  H     
29   H       -19.9090   38.8850    3.7651  H     
30   H       -21.4189   39.8743    2.1842  H     
31   H       -15.3811   33.3301   -1.0928  H     
32   H       -16.0287   33.6870   -3.2973  H     
33   H       -17.1276   34.7224   -4.7701  H     
34   H       -18.2248   35.8678   -6.0408  H     
35   H       -20.4303   36.3473   -5.8094  H     
36   H       -20.2134   35.1325   -4.5521  H     
37   H       -21.6169   37.1208   -3.8646  H     
38   H       -20.2281   36.8392   -2.8195  H     
39   H       -20.4168   38.9241   -5.0724  H     
40   H       -20.4574   39.2692   -3.3445  H     
41   H       -18.2067   39.7124   -4.3103  H     
42   H       -18.1321   38.4661   -3.0679  H     
43   H       -16.7767   37.7333   -4.9725  H     
44   H       -18.0745   38.1304   -6.0943  H     
@<TRIPOS>BOND
     1    1    2 1
     2    2    3 1
     3    2    4 1
     4    2    5 1
     5    5    6 2
     6    5   10 1
     7    6    7 1
     8    7    8 2
     9    7   11 1
    10    8    9 1
    11    9   10 2
    12   11   12 2
    13   11   26 1
    14   12   13 1
    15   13   14 2
    16   14   15 1
    17   14   26 1
    18   15   16 2
    19   16   17 1
    20   17   18 1
    21   17   25 2
    22   18   19 1
    23   19   20 1
    24   19   24 1
    25   20   21 1
    26   21   22 1
    27   22   23 1
    28   23   24 1
    29   25   26 1
    30    6   27 1
    31    8   28 1
    32    9   29 1
    33   10   30 1
    34   15   31 1
    35   16   32 1
    36   18   33 1
    37   19   34 1
    38   20   35 1
    39   20   36 1
    40   21   37 1
    41   21   38 1
    42   22   39 1
    43   22   40 1
    44   23   41 1
    45   23   42 1
    46   24   43 1
    47   24   44 1
@<TRIPOS>PROPERTY_DATA
  Total_Score	| 6.4379
  Crash		| -0.5303
  Polar		| 1.3023
  FragIndex	| 1
  FragRMSD	| 0.825

