@<TRIPOS>MOLECULE
BindingDB_50258327
 47 50 0 0 0
SMALL
NO_CHARGES


@<TRIPOS>ATOM
1    C       -16.7027   34.5982   -2.7884  C     
2    C       -17.6155   35.6567   -2.9096  C     
3    N       -18.0791   36.2391   -1.7638  N     
4    C       -16.2710   34.2045   -1.5714  C     
5    C       -16.7656   34.8537   -0.4456  C     
6    N       -17.6775   35.8368   -0.5730  N     
7    C       -17.9785   36.2600    0.6696  C     
8    N       -17.2283   35.5206    1.5160  N     
9    N       -16.4974   34.6736    0.8540  N     
10   C       -18.8939   37.2738    1.0980  C     
11   C       -18.9183   37.6736    2.4583  C     
12   C       -19.7962   38.6743    2.9065  C     
13   C       -20.6665   39.3028    2.0012  C     
14   C       -20.6985   38.9204    0.6399  C     
15   C       -19.8074   37.9017    0.2127  C     
16   C       -21.6442   39.6049   -0.2918  C     
17   F       -21.6647   39.0904   -1.5695  F     
18   F       -22.9317   39.5258    0.1842  F     
19   F       -21.3002   40.9307   -0.4019  F     
20   N       -18.0031   36.0799   -4.1350  N     
21   C       -18.9039   37.1678   -4.3955  C     
22   C       -18.2742   38.5455   -4.0316  C     
23   C       -19.2389   39.7137   -4.3802  C     
24   N       -19.6571   39.6834   -5.8187  N     
25   C       -20.2323   38.3669   -6.2339  C     
26   C       -19.3082   37.1688   -5.8934  C     
27   C       -20.5733   40.8106   -6.1635  C     
28   H       -16.3612   34.1337   -3.6032  H     
29   H       -15.6128   33.4641   -1.4731  H     
30   H       -18.2934   37.2434    3.1480  H     
31   H       -19.8080   38.9431    3.8953  H     
32   H       -21.2949   40.0339    2.3433  H     
33   H       -19.8398   37.6243   -0.7663  H     
34   H       -17.6542   35.5907   -4.8994  H     
35   H       -19.8135   37.0164   -3.7994  H     
36   H       -18.0386   38.5785   -2.9623  H     
37   H       -17.3392   38.6773   -4.5894  H     
38   H       -20.1150   39.6689   -3.7223  H     
39   H       -18.7106   40.6519   -4.1881  H     
40   H       -18.8125   39.8362   -6.3767  H     
41   H       -21.2039   38.2073   -5.7546  H     
42   H       -20.3895   38.3595   -7.3165  H     
43   H       -18.4106   37.2243   -6.5169  H     
44   H       -19.8294   36.2385   -6.1360  H     
45   H       -21.5255   40.7237   -5.6270  H     
46   H       -20.7666   40.8114   -7.2416  H     
47   H       -20.1079   41.7655   -5.9068  H     
@<TRIPOS>BOND
     1    1    2 1
     2    1    4 2
     3    2    3 2
     4    2   20 1
     5    3    6 1
     6    4    5 1
     7    5    6 1
     8    5    9 2
     9    6    7 1
    10    7    8 2
    11    7   10 1
    12    8    9 1
    13   10   11 2
    14   10   15 1
    15   11   12 1
    16   12   13 2
    17   13   14 1
    18   14   15 2
    19   14   16 1
    20   16   17 1
    21   16   18 1
    22   16   19 1
    23   20   21 1
    24   21   22 1
    25   21   26 1
    26   22   23 1
    27   23   24 1
    28   24   25 1
    29   24   27 1
    30   25   26 1
    31    1   28 1
    32    4   29 1
    33   11   30 1
    34   12   31 1
    35   13   32 1
    36   15   33 1
    37   20   34 1
    38   21   35 1
    39   22   36 1
    40   22   37 1
    41   23   38 1
    42   23   39 1
    43   24   40 1
    44   25   41 1
    45   25   42 1
    46   26   43 1
    47   26   44 1
    48   27   45 1
    49   27   46 1
    50   27   47 1
@<TRIPOS>PROPERTY_DATA
  Total_Score	| 7.7450
  Crash		| -0.3632
  Polar		| 3.1185
  FragIndex	| 1
  FragRMSD	| 0.321

