@<TRIPOS>MOLECULE
BindingDB_50258858
 38 41 0 0 0
SMALL
NO_CHARGES


@<TRIPOS>ATOM
1    C       -16.4311   34.4712   -2.5602  C     
2    C       -17.2862   35.5678   -2.7932  C     
3    N       -17.8378   36.1964   -1.7084  N     
4    C       -16.1181   34.0945   -1.2992  C     
5    C       -16.6777   34.7976   -0.2429  C     
6    N       -17.5336   35.8168   -0.4713  N     
7    C       -17.9138   36.2855    0.7415  C     
8    N       -17.2589   35.5374    1.6638  N     
9    N       -16.5190   34.6438    1.0805  N     
10   C       -18.8260   37.3319    1.0910  C     
11   C       -18.9231   37.7523    2.4435  C     
12   C       -19.8359   38.7456    2.8378  C     
13   C       -20.6643   39.3545    1.8846  C     
14   C       -20.5900   38.9900    0.5216  C     
15   C       -19.6743   37.9679    0.1511  C     
16   N       -17.5541   35.9369   -4.0659  N     
17   C       -21.4849   39.6608   -0.4673  C     
18   F       -21.2060   39.3738   -1.7830  F     
19   F       -22.7938   39.3003   -0.2421  F     
20   F       -21.3924   41.0318   -0.3464  F     
21   C       -18.4243   37.0007   -4.4712  C     
22   C       -19.9395   36.6527   -4.5785  C     
23   C       -20.4054   35.1838   -4.5248  C     
24   C       -20.6462   36.1125   -3.3267  C     
25   H       -16.0141   33.9896   -3.3246  H     
26   H       -15.4955   33.3362   -1.1247  H     
27   H       -18.3486   37.3242    3.1721  H     
28   H       -19.9073   39.0133    3.8198  H     
29   H       -21.3243   40.0727    2.1863  H     
30   H       -19.6621   37.6626   -0.8189  H     
31   H       -17.1171   35.4318   -4.7719  H     
32   H       -18.2949   37.8586   -3.8068  H     
33   H       -18.0840   37.3139   -5.4550  H     
34   H       -20.5723   37.3289   -5.1615  H     
35   H       -21.3036   34.9315   -5.0916  H     
36   H       -19.6494   34.4062   -4.3624  H     
37   H       -20.0166   35.8902   -2.4527  H     
38   H       -21.6921   36.4061   -3.1829  H     
@<TRIPOS>BOND
     1    1    2 1
     2    1    4 2
     3    2    3 2
     4    2   16 1
     5    3    6 1
     6    4    5 1
     7    5    6 1
     8    5    9 2
     9    6    7 1
    10    7    8 2
    11    7   10 1
    12    8    9 1
    13   10   11 2
    14   10   15 1
    15   11   12 1
    16   12   13 2
    17   13   14 1
    18   14   15 2
    19   14   17 1
    20   16   21 1
    21   17   18 1
    22   17   19 1
    23   17   20 1
    24   21   22 1
    25   22   23 1
    26   22   24 1
    27   23   24 1
    28    1   25 1
    29    4   26 1
    30   11   27 1
    31   12   28 1
    32   13   29 1
    33   15   30 1
    34   16   31 1
    35   21   32 1
    36   21   33 1
    37   22   34 1
    38   23   35 1
    39   23   36 1
    40   24   37 1
    41   24   38 1
@<TRIPOS>PROPERTY_DATA
  Total_Score	| 6.4852
  Crash		| -0.7083
  Polar		| 1.2978
  FragIndex	| 1
  FragRMSD	| 0.728

