@<TRIPOS>MOLECULE
BindingDB_50258286
 44 47 0 0 0
SMALL
NO_CHARGES


@<TRIPOS>ATOM
1    C       -16.6837   34.4779   -2.6916  C     
2    C       -17.5943   35.5338   -2.8624  C     
3    N       -18.0640   36.1418   -1.7373  N     
4    C       -16.2931   34.1019   -1.4593  C     
5    C       -16.8122   34.7662   -0.3599  C     
6    N       -17.6979   35.7691   -0.5258  N     
7    C       -18.0294   36.2229    0.6993  C     
8    N       -17.3166   35.4757    1.5742  N     
9    N       -16.5869   34.6022    0.9475  N     
10   C       -18.9209   37.2728    1.0879  C     
11   C       -18.9466   37.7247    2.4309  C     
12   C       -19.7966   38.7656    2.8327  C     
13   C       -20.6362   39.3926    1.8961  C     
14   C       -20.6570   38.9682    0.5478  C     
15   C       -19.8046   37.9022    0.1703  C     
16   C       -21.5624   39.6549   -0.4203  C     
17   N       -17.9624   35.9319   -4.1015  N     
18   C       -18.8599   37.0112   -4.4274  C     
19   C       -18.0848   38.1468   -5.1499  C     
20   N       -19.0001   39.2306   -5.5850  N     
21   C       -20.1079   38.7779   -6.4571  C     
22   C       -20.9319   37.6517   -5.7856  C     
23   C       -20.0181   36.4865   -5.3199  C     
24   F       -21.5162   39.1600   -1.7045  F     
25   F       -22.8674   39.5522   -0.0010  F     
26   F       -21.2353   40.9873   -0.4976  F     
27   H       -16.3174   34.0109   -3.4879  H     
28   H       -15.6409   33.3610   -1.3345  H     
29   H       -18.3416   37.3016    3.1406  H     
30   H       -19.8021   39.0739    3.8078  H     
31   H       -21.2364   40.1600    2.2035  H     
32   H       -19.8449   37.5827   -0.7931  H     
33   H       -17.5728   35.4531   -4.8518  H     
34   H       -19.3134   37.4458   -3.5308  H     
35   H       -17.3462   38.5786   -4.4686  H     
36   H       -17.5538   37.7513   -6.0196  H     
37   H       -19.4010   39.6684   -4.7520  H     
38   H       -18.4620   39.9336   -6.0957  H     
39   H       -20.7595   39.6303   -6.6608  H     
40   H       -19.7030   38.4285   -7.4117  H     
41   H       -21.4634   38.0619   -4.9214  H     
42   H       -21.6756   37.2746   -6.4929  H     
43   H       -19.6085   35.9801   -6.1995  H     
44   H       -20.6183   35.7621   -4.7616  H     
@<TRIPOS>BOND
     1    1    2 1
     2    1    4 2
     3    2    3 2
     4    2   17 1
     5    3    6 1
     6    4    5 1
     7    5    6 1
     8    5    9 2
     9    6    7 1
    10    7    8 2
    11    7   10 1
    12    8    9 1
    13   10   11 2
    14   10   15 1
    15   11   12 1
    16   12   13 2
    17   13   14 1
    18   14   15 2
    19   14   16 1
    20   16   24 1
    21   16   25 1
    22   16   26 1
    23   17   18 1
    24   18   19 1
    25   18   23 1
    26   19   20 1
    27   20   21 1
    28   21   22 1
    29   22   23 1
    30    1   27 1
    31    4   28 1
    32   11   29 1
    33   12   30 1
    34   13   31 1
    35   15   32 1
    36   17   33 1
    37   18   34 1
    38   19   35 1
    39   19   36 1
    40   20   37 1
    41   20   38 1
    42   21   39 1
    43   21   40 1
    44   22   41 1
    45   22   42 1
    46   23   43 1
    47   23   44 1
@<TRIPOS>PROPERTY_DATA
  Total_Score	| 7.5773
  Crash		| -0.2511
  Polar		| 2.9649
  FragIndex	| 1
  FragRMSD	| 0.298

