@<TRIPOS>MOLECULE
BindingDB_50258812
 32 35 0 0 0
SMALL
NO_CHARGES


@<TRIPOS>ATOM
1    C       -16.5776   34.3134   -2.5682  C     
2    C       -17.5715   35.2792   -2.7603  C     
3    N       -18.0204   35.9587   -1.6693  N     
4    C       -16.0968   34.0592   -1.3296  C     
5    C       -16.6075   34.7809   -0.2616  C     
6    N       -17.5601   35.7132   -0.4592  N     
7    C       -17.8713   36.2365    0.7457  C     
8    N       -17.0808   35.5969    1.6382  N     
9    N       -16.3235   34.7240    1.0433  N     
10   C       -18.8236   37.2438    1.1015  C     
11   C       -18.9213   37.6874    2.4474  C     
12   C       -19.8423   38.6808    2.8297  C     
13   C       -20.6871   39.2613    1.8763  C     
14   C       -20.6208   38.8320    0.5395  C     
15   C       -19.7035   37.8341    0.1637  C     
16   N       -18.0785   35.5256   -3.9918  N     
17   C       -19.0771   36.5095   -4.2714  C     
18   C       -20.3812   35.9701   -4.8868  C     
19   C       -20.3875   36.5262   -3.4614  C     
20   H       -16.2181   33.8077   -3.3443  H     
21   H       -15.4011   33.3690   -1.1869  H     
22   H       -18.3230   37.2907    3.1726  H     
23   H       -19.8912   38.9814    3.8022  H     
24   H       -21.3553   39.9860    2.1471  H     
25   H       -21.2481   39.2450   -0.1580  H     
26   H       -19.7062   37.5475   -0.8131  H     
27   H       -17.7154   35.0280   -4.7400  H     
28   H       -18.7592   37.4733   -4.6798  H     
29   H       -20.8791   36.6068   -5.6208  H     
30   H       -20.4984   34.8856   -4.9471  H     
31   H       -20.5027   35.7718   -2.6781  H     
32   H       -20.8698   37.4994   -3.3440  H     
@<TRIPOS>BOND
     1    1    2 1
     2    1    4 2
     3    2    3 2
     4    2   16 1
     5    3    6 1
     6    4    5 1
     7    5    6 1
     8    5    9 2
     9    6    7 1
    10    7    8 2
    11    7   10 1
    12    8    9 1
    13   10   11 2
    14   10   15 1
    15   11   12 1
    16   12   13 2
    17   13   14 1
    18   14   15 2
    19   16   17 1
    20   17   18 1
    21   17   19 1
    22   18   19 1
    23    1   20 1
    24    4   21 1
    25   11   22 1
    26   12   23 1
    27   13   24 1
    28   14   25 1
    29   15   26 1
    30   16   27 1
    31   17   28 1
    32   18   29 1
    33   18   30 1
    34   19   31 1
    35   19   32 1
@<TRIPOS>PROPERTY_DATA
  Total_Score	| 5.7540
  Crash		| -0.2034
  Polar		| 1.2772
  FragIndex	| 1
  FragRMSD	| 0.662

