@<TRIPOS>MOLECULE
BindingDB_27715
 54 57 0 0 0
SMALL
NO_CHARGES


@<TRIPOS>ATOM
1    C         5.7881   -6.9952   33.3468  C     
2    C         6.0771   -7.9022   32.3131  C     
3    C         7.2391   -7.7457   31.5479  C     
4    C         8.1101   -6.6751   31.8076  C     
5    C         7.8498   -5.7230   32.8353  C     
6    C         6.6591   -5.9086   33.6115  C     
7    C         6.4199   -4.9816   34.6310  C     
8    N         8.7010   -4.6297   33.1229  N     
9    C         8.3493   -3.7856   34.1198  C     
10   N         7.2429   -3.9689   34.8272  N     
11   O         5.4461   -5.0354   35.3721  O     
12   O         8.9893   -2.7917   34.4370  O     
13   C         9.9483   -4.3934   32.3954  C     
14   C         9.7753   -3.7101   31.0095  C     
15   C         9.1157   -2.3009   31.0547  C     
16   C         9.3402   -1.5048   29.7367  C     
17   C         8.5671   -0.1431   29.6438  C     
18   C         8.6409    2.2444   30.4333  C     
19   C         9.0673    0.8843   30.7211  C     
20   C         8.6018    0.4579   28.1818  C     
21   C         9.2120    1.8883   28.1102  C     
22   C         8.6871    2.7442   29.1795  C     
23   C         8.2446    4.0415   28.9095  C     
24   C         6.8863    5.6181   27.5945  C     
25   C         7.3134    4.3041   27.8716  C     
26   C         8.7467    5.1470   29.6505  C     
27   C         8.3252    6.4606   29.3707  C     
28   C         7.4002    6.7007   28.3375  C     
29   F         4.7053   -7.2083   34.0452  F     
30   H         5.4486   -8.6884   32.1248  H     
31   H         7.4484   -8.4148   30.7987  H     
32   H         8.9419   -6.6085   31.2181  H     
33   H         7.0385   -3.3377   35.5340  H     
34   H        10.6542   -3.7869   32.9698  H     
35   H        10.4796   -5.3365   32.2588  H     
36   H        10.7760   -3.6140   30.5743  H     
37   H         9.1821   -4.3453   30.3412  H     
38   H         8.0353   -2.4235   31.2179  H     
39   H         9.5302   -1.7336   31.8941  H     
40   H        10.4167   -1.3049   29.6226  H     
41   H         9.0371   -2.1496   28.9003  H     
42   H         7.5170   -0.3557   29.8732  H     
43   H         8.2385    2.7792   31.1713  H     
44   H         8.7171    0.5948   31.7139  H     
45   H        10.1604    0.8836   30.7395  H     
46   H         9.1598   -0.1803   27.4886  H     
47   H         7.5757    0.4996   27.7962  H     
48   H        10.2950    1.8194   28.2464  H     
49   H         9.0401    2.3068   27.1132  H     
50   H         6.2069    5.7844   26.8470  H     
51   H         6.9275    3.5372   27.3114  H     
52   H         9.4369    5.0044   30.3935  H     
53   H         8.6972    7.2436   29.9102  H     
54   H         7.0944    7.6520   28.1278  H     
@<TRIPOS>BOND
     1    1    2 2
     2    1    6 1
     3    1   29 1
     4    2    3 1
     5    3    4 2
     6    4    5 1
     7    5    6 2
     8    5    8 1
     9    6    7 1
    10    7   10 1
    11    7   11 2
    12    8    9 1
    13    8   13 1
    14    9   10 1
    15    9   12 2
    16   13   14 1
    17   14   15 1
    18   15   16 1
    19   16   17 1
    20   17   19 1
    21   17   20 1
    22   18   19 1
    23   18   22 2
    24   20   21 1
    25   21   22 1
    26   22   23 1
    27   23   25 1
    28   23   26 2
    29   24   25 2
    30   24   28 1
    31   26   27 1
    32   27   28 2
    33    2   30 1
    34    3   31 1
    35    4   32 1
    36   10   33 1
    37   13   34 1
    38   13   35 1
    39   14   36 1
    40   14   37 1
    41   15   38 1
    42   15   39 1
    43   16   40 1
    44   16   41 1
    45   17   42 1
    46   18   43 1
    47   19   44 1
    48   19   45 1
    49   20   46 1
    50   20   47 1
    51   21   48 1
    52   21   49 1
    53   24   50 1
    54   25   51 1
    55   26   52 1
    56   27   53 1
    57   28   54 1
@<TRIPOS>PROPERTY_DATA
  Total_Score	| 9.2884
  Crash		| -0.8203
  Polar		| 2.2412
  FragIndex	| 1
  FragRMSD	| 0.185

