@<TRIPOS>MOLECULE
BindingDB_27705
 50 53 0 0 0
SMALL
NO_CHARGES


@<TRIPOS>ATOM
1    C         6.2720   -7.3377   34.2177  C     
2    C         6.7537   -8.5322   33.6429  C     
3    C         7.7584   -8.4931   32.6625  C     
4    C         8.3006   -7.2627   32.2579  C     
5    C         7.8285   -6.0692   32.8306  C     
6    C         6.7998   -6.0873   33.8102  C     
7    C         6.3751   -4.8452   34.3044  C     
8    N         8.3581   -4.8838   32.4287  N     
9    C         7.9058   -3.6989   32.9035  C     
10   N         6.9139   -3.7125   33.8455  N     
11   O         5.5163   -4.7630   35.1694  O     
12   C         8.5704   -2.4581   32.4277  C     
13   C         8.6047   -2.2869   30.8734  C     
14   C         9.7450   -1.3690   30.3097  C     
15   N         9.5129    0.1013   30.1311  N     
16   C         8.5910    2.1929   31.1125  C     
17   C         8.8810    0.7825   31.3043  C     
18   C         8.8394    0.5000   28.8644  C     
19   C         8.9252    2.0446   28.6984  C     
20   C         8.5620    2.8087   29.9089  C     
21   C         8.2789    4.1930   29.8203  C     
22   C         7.1357    6.0929   28.7287  C     
23   C         7.4538    4.7226   28.7895  C     
24   C         8.7857    5.1157   30.7798  C     
25   C         8.4593    6.4847   30.7289  C     
26   C         7.6305    6.9738   29.7054  C     
27   H         5.5449   -7.3910   34.9366  H     
28   H         6.3775   -9.4333   33.9462  H     
29   H         8.1100   -9.3640   32.2542  H     
30   H         9.0365   -7.2399   31.5458  H     
31   H         6.6067   -2.8708   34.2170  H     
32   H         8.0714   -1.5985   32.8748  H     
33   H         9.5912   -2.4833   32.8178  H     
34   H         8.7473   -3.2749   30.4215  H     
35   H         7.6338   -1.9207   30.5316  H     
36   H        10.6281   -1.4804   30.9394  H     
37   H        10.0366   -1.7733   29.3383  H     
38   H        10.4572    0.4967   30.0499  H     
39   H         8.2873    2.6871   31.9234  H     
40   H         7.9244    0.3107   31.5448  H     
41   H         9.5519    0.6736   32.1623  H     
42   H         9.3344    0.0446   28.0051  H     
43   H         7.7925    0.1761   28.8606  H     
44   H         9.9512    2.3156   28.4350  H     
45   H         8.2920    2.2995   27.8478  H     
46   H         6.5361    6.4428   27.9773  H     
47   H         7.0364    4.1172   28.0806  H     
48   H         9.3946    4.8009   31.5376  H     
49   H         8.8199    7.1304   31.4374  H     
50   H         7.3946    7.9710   29.6635  H     
@<TRIPOS>BOND
     1    1    2 2
     2    1    6 1
     3    2    3 1
     4    3    4 2
     5    4    5 1
     6    5    6 2
     7    5    8 1
     8    6    7 1
     9    7   10 1
    10    7   11 2
    11    8    9 2
    12    9   10 1
    13    9   12 1
    14   12   13 1
    15   13   14 1
    16   14   15 1
    17   15   17 1
    18   15   18 1
    19   16   17 1
    20   16   20 2
    21   18   19 1
    22   19   20 1
    23   20   21 1
    24   21   23 1
    25   21   24 2
    26   22   23 2
    27   22   26 1
    28   24   25 1
    29   25   26 2
    30    1   27 1
    31    2   28 1
    32    3   29 1
    33    4   30 1
    34   10   31 1
    35   12   32 1
    36   12   33 1
    37   13   34 1
    38   13   35 1
    39   14   36 1
    40   14   37 1
    41   15   38 1
    42   16   39 1
    43   17   40 1
    44   17   41 1
    45   18   42 1
    46   18   43 1
    47   19   44 1
    48   19   45 1
    49   22   46 1
    50   23   47 1
    51   24   48 1
    52   25   49 1
    53   26   50 1
@<TRIPOS>PROPERTY_DATA
  Total_Score	| 6.9186
  Crash		| -0.5026
  Polar		| 1.9536
  FragIndex	| 1
  FragRMSD	| 0.888

