@<TRIPOS>MOLECULE
BindingDB_50220864
 50 53 0 0 0
SMALL
NO_CHARGES


@<TRIPOS>ATOM
1    C         5.8358   -8.1639   32.6156  C     
2    C         6.8936   -8.0860   31.6897  C     
3    C         7.7212   -6.9483   31.6540  C     
4    C         5.6111   -7.1087   33.5204  C     
5    C         6.4312   -5.9547   33.4904  C     
6    C         7.4856   -5.8773   32.5389  C     
7    N         8.2480   -4.7385   32.4611  N     
8    C         8.0016   -3.6701   33.2644  C     
9    N         7.0137   -3.7661   34.1999  N     
10   C         6.2556   -4.8508   34.3342  C     
11   O         5.4122   -4.8458   35.2212  O     
12   C         8.8456   -2.4519   33.2030  C     
13   C         9.3891   -2.0280   31.8054  C     
14   C         8.3420   -1.5285   30.7513  C     
15   N         8.2190   -0.0483   30.5084  N     
16   C         9.4795    0.6376   30.0848  C     
17   C         9.2095    2.0324   29.7537  C     
18   C         8.4179    2.7973   30.5373  C     
19   C         7.8783    2.1967   31.7599  C     
20   C         7.4492    0.7071   31.5591  C     
21   C         8.1485    4.1372   30.2240  C     
22   C         8.4085    5.1718   31.1599  C     
23   C         8.1567    6.5198   30.8426  C     
24   C         7.6086    6.8599   29.5938  C     
25   C         7.3346    5.8470   28.6557  C     
26   C         7.6102    4.5014   28.9669  C     
27   F         7.3467    8.1072   29.3079  F     
28   H         5.2281   -8.9877   32.6268  H     
29   H         7.0505   -8.8549   31.0330  H     
30   H         8.4779   -6.8963   30.9686  H     
31   H         4.8353   -7.1864   34.1858  H     
32   H         6.8654   -3.0209   34.8038  H     
33   H         8.2961   -1.6099   33.6386  H     
34   H         9.7120   -2.6319   33.8475  H     
35   H        10.1428   -1.2380   31.9732  H     
36   H         9.9230   -2.8893   31.3890  H     
37   H         8.5971   -1.9847   29.7897  H     
38   H         7.3571   -1.9315   30.9982  H     
39   H         7.6233    0.0109   29.6758  H     
40   H        10.2168    0.6009   30.8927  H     
41   H         9.9077    0.1351   29.2154  H     
42   H         9.6081    2.4086   28.9237  H     
43   H         8.6704    2.2277   32.5107  H     
44   H         7.0275    2.7595   32.1536  H     
45   H         6.3963    0.6825   31.2567  H     
46   H         7.5109    0.2131   32.5355  H     
47   H         8.8111    4.9543   32.0770  H     
48   H         8.3808    7.2538   31.5207  H     
49   H         6.9278    6.0856   27.7483  H     
50   H         7.3891    3.7842   28.2706  H     
@<TRIPOS>BOND
     1    1    2 2
     2    1    4 1
     3    2    3 1
     4    3    6 2
     5    4    5 2
     6    5    6 1
     7    5   10 1
     8    6    7 1
     9    7    8 2
    10    8    9 1
    11    8   12 1
    12    9   10 1
    13   10   11 2
    14   12   13 1
    15   13   14 1
    16   14   15 1
    17   15   16 1
    18   15   20 1
    19   16   17 1
    20   17   18 2
    21   18   19 1
    22   18   21 1
    23   19   20 1
    24   21   22 2
    25   21   26 1
    26   22   23 1
    27   23   24 2
    28   24   25 1
    29   24   27 1
    30   25   26 2
    31    1   28 1
    32    2   29 1
    33    3   30 1
    34    4   31 1
    35    9   32 1
    36   12   33 1
    37   12   34 1
    38   13   35 1
    39   13   36 1
    40   14   37 1
    41   14   38 1
    42   15   39 1
    43   16   40 1
    44   16   41 1
    45   17   42 1
    46   19   43 1
    47   19   44 1
    48   20   45 1
    49   20   46 1
    50   22   47 1
    51   23   48 1
    52   25   49 1
    53   26   50 1
@<TRIPOS>PROPERTY_DATA
  Total_Score	| 6.5904
  Crash		| -0.4826
  Polar		| 1.6527
  FragIndex	| 1
  FragRMSD	| 1.359

