@<TRIPOS>MOLECULE
BindingDB_50220868
 50 53 0 0 0
SMALL
NO_CHARGES


@<TRIPOS>ATOM
1    C         6.0375   -8.1264   32.4674  C     
2    C         7.0755   -7.9477   31.5361  C     
3    C         7.8639   -6.7827   31.5684  C     
4    C         5.7798   -7.1403   33.4349  C     
5    C         6.5638   -5.9630   33.4774  C     
6    C         7.6102   -5.7823   32.5279  C     
7    N         8.3179   -4.6082   32.5140  N     
8    C         8.0420   -3.6048   33.3871  C     
9    N         7.0473   -3.7901   34.3080  N     
10   C         6.3382   -4.9193   34.3853  C     
11   O         5.4905   -4.9957   35.2720  O     
12   C         8.7868   -2.3194   33.3366  C     
13   C         9.4555   -1.9826   31.9681  C     
14   C         8.5067   -1.6246   30.7739  C     
15   N         8.2347   -0.1888   30.4668  N     
16   C         7.3792    0.5268   31.4801  C     
17   C         7.7105    2.0335   31.6999  C     
18   C         8.2846    2.6971   30.5220  C     
19   C         9.1461    1.9811   29.7541  C     
20   C         9.4469    0.5881   30.0288  C     
21   C         8.0097    4.0535   30.2766  C     
22   C         7.3026    4.4664   29.1193  C     
23   C         6.9699    5.8207   28.9238  C     
24   C         7.3596    6.7942   29.8621  C     
25   C         8.1119    6.4090   30.9852  C     
26   C         8.4233    5.0524   31.1963  C     
27   Cl        6.9058    8.4034   29.6621  Cl    
28   H         5.4564   -8.9659   32.4215  H     
29   H         7.2617   -8.6654   30.8350  H     
30   H         8.5890   -6.6410   30.8674  H     
31   H         5.0060   -7.2821   34.0880  H     
32   H         6.8600   -3.0759   34.9554  H     
33   H         8.1271   -1.4988   33.6355  H     
34   H         9.5754   -2.3821   34.0922  H     
35   H        10.1585   -1.1543   32.1375  H     
36   H        10.0538   -2.8637   31.6751  H     
37   H         8.9394   -2.0529   29.8765  H     
38   H         7.5533   -2.1269   30.8978  H     
39   H         7.6474   -0.1989   29.6242  H     
40   H         6.3391    0.4447   31.1342  H     
41   H         7.4141    0.0449   32.4600  H     
42   H         6.7893    2.5421   32.0294  H     
43   H         8.4502    2.1198   32.5100  H     
44   H         9.5631    2.4011   28.9602  H     
45   H        10.2249    0.5430   30.7897  H     
46   H         9.8435    0.1297   29.1197  H     
47   H         6.9945    3.7779   28.4232  H     
48   H         6.4439    6.0929   28.0938  H     
49   H         8.4355    7.1009   31.6582  H     
50   H         8.9655    4.7959   32.0288  H     
@<TRIPOS>BOND
     1    1    2 2
     2    1    4 1
     3    2    3 1
     4    3    6 2
     5    4    5 2
     6    5    6 1
     7    5   10 1
     8    6    7 1
     9    7    8 2
    10    8    9 1
    11    8   12 1
    12    9   10 1
    13   10   11 2
    14   12   13 1
    15   13   14 1
    16   14   15 1
    17   15   16 1
    18   15   20 1
    19   16   17 1
    20   17   18 1
    21   18   19 2
    22   18   21 1
    23   19   20 1
    24   21   22 2
    25   21   26 1
    26   22   23 1
    27   23   24 2
    28   24   25 1
    29   24   27 1
    30   25   26 2
    31    1   28 1
    32    2   29 1
    33    3   30 1
    34    4   31 1
    35    9   32 1
    36   12   33 1
    37   12   34 1
    38   13   35 1
    39   13   36 1
    40   14   37 1
    41   14   38 1
    42   15   39 1
    43   16   40 1
    44   16   41 1
    45   17   42 1
    46   17   43 1
    47   19   44 1
    48   20   45 1
    49   20   46 1
    50   22   47 1
    51   23   48 1
    52   25   49 1
    53   26   50 1
@<TRIPOS>PROPERTY_DATA
  Total_Score	| 6.3659
  Crash		| -0.5635
  Polar		| 1.8123
  FragIndex	| 1
  FragRMSD	| 1.349

