@<TRIPOS>MOLECULE
BindingDB_27710
 50 53 0 0 0
SMALL
NO_CHARGES


@<TRIPOS>ATOM
1    C         6.4919   -6.9166   33.4599  C     
2    C         6.9250   -7.8000   32.4467  C     
3    C         7.7817   -7.3501   31.4252  C     
4    C         8.2251   -6.0177   31.4194  C     
5    C         7.7866   -5.1180   32.4131  C     
6    C         6.9096   -5.5569   33.4450  C     
7    C         6.5126   -4.5650   34.3688  C     
8    N         8.1863   -3.8266   32.3456  N     
9    C         7.8079   -2.9098   33.2693  C     
10   N         6.9717   -3.3133   34.2621  N     
11   O         5.7198   -4.7674   35.2722  O     
12   C         8.1817   -1.4725   33.1898  C     
13   C         8.6699   -0.8027   31.8636  C     
14   C         8.3879   -1.5153   30.5063  C     
15   N         8.1386   -0.6689   29.2969  N     
16   C         6.8297    1.4872   29.4759  C     
17   C         6.8248    0.0467   29.2506  C     
18   C         9.2599    0.2019   28.8660  C     
19   C         9.2412    1.6177   29.5007  C     
20   C         7.9280    2.2725   29.6190  C     
21   C         7.8324    3.6783   29.9121  C     
22   C         6.4704    5.7260   30.3023  C     
23   C         6.5758    4.3447   30.0394  C     
24   C         8.9745    4.5102   30.1085  C     
25   C         8.8790    5.8928   30.3830  C     
26   C         7.6203    6.5055   30.4661  C     
27   Cl        5.4717   -7.5786   34.6456  Cl    
28   H         6.6192   -8.7729   32.4435  H     
29   H         8.0726   -7.9932   30.6831  H     
30   H         8.8438   -5.6967   30.6663  H     
31   H         6.6695   -2.6599   34.9264  H     
32   H         7.3114   -0.9099   33.5370  H     
33   H         8.9622   -1.3114   33.9372  H     
34   H         8.2105    0.1934   31.8337  H     
35   H         9.7482   -0.6229   31.9354  H     
36   H         9.2104   -2.2002   30.2992  H     
37   H         7.5230   -2.1517   30.6122  H     
38   H         8.0723   -1.3641   28.5531  H     
39   H         5.9322    1.9012   29.4539  H     
40   H         6.4077   -0.1165   28.2556  H     
41   H         6.1168   -0.4079   29.9491  H     
42   H        10.2201   -0.2805   29.0607  H     
43   H         9.1855    0.3135   27.7843  H     
44   H         9.6949    1.5721   30.4903  H     
45   H         9.8987    2.2018   28.8594  H     
46   H         5.5469    6.1631   30.3858  H     
47   H         5.6985    3.8360   29.9799  H     
48   H         9.9206    4.1359   30.0540  H     
49   H         9.7218    6.4518   30.5133  H     
50   H         7.5476    7.5065   30.6546  H     
@<TRIPOS>BOND
     1    1    2 2
     2    1    6 1
     3    1   27 1
     4    2    3 1
     5    3    4 2
     6    4    5 1
     7    5    6 2
     8    5    8 1
     9    6    7 1
    10    7   10 1
    11    7   11 2
    12    8    9 2
    13    9   10 1
    14    9   12 1
    15   12   13 1
    16   13   14 1
    17   14   15 1
    18   15   17 1
    19   15   18 1
    20   16   17 1
    21   16   20 2
    22   18   19 1
    23   19   20 1
    24   20   21 1
    25   21   23 1
    26   21   24 2
    27   22   23 2
    28   22   26 1
    29   24   25 1
    30   25   26 2
    31    2   28 1
    32    3   29 1
    33    4   30 1
    34   10   31 1
    35   12   32 1
    36   12   33 1
    37   13   34 1
    38   13   35 1
    39   14   36 1
    40   14   37 1
    41   15   38 1
    42   16   39 1
    43   17   40 1
    44   17   41 1
    45   18   42 1
    46   18   43 1
    47   19   44 1
    48   19   45 1
    49   22   46 1
    50   23   47 1
    51   24   48 1
    52   25   49 1
    53   26   50 1
@<TRIPOS>PROPERTY_DATA
  Total_Score	| 6.1670
  Crash		| -1.4996
  Polar		| 1.8676
  FragIndex	| 1
  FragRMSD	| 1.373

