@<TRIPOS>MOLECULE
BindingDB_50220871
 56 60 0 0 0
SMALL
NO_CHARGES


@<TRIPOS>ATOM
1    C         6.7960   -8.5979   34.0905  C     
2    C         7.8673   -8.6053   33.1767  C     
3    C         8.3685   -7.3836   32.6696  C     
4    C         6.2236   -7.3787   34.5091  C     
5    C         6.7560   -6.1501   34.0500  C     
6    C         7.8462   -6.1661   33.1357  C     
7    N         8.3836   -4.9847   32.7168  N     
8    C         7.9208   -3.7669   33.1303  C     
9    N         6.8719   -3.7804   34.0109  N     
10   C         6.3034   -4.8927   34.4623  C     
11   O         5.3658   -4.7764   35.2459  O     
12   N         8.4848   -2.5938   32.6712  N     
13   C         7.9999   -1.2672   33.0304  C     
14   C         7.4611   -0.5435   31.7788  C     
15   C         8.5351   -0.4482   30.6432  C     
16   C         9.1472   -1.8775   30.4101  C     
17   C         9.5783   -2.5861   31.7211  C     
18   N         8.0832    0.1183   29.3150  N     
19   C         9.1076    0.9927   28.6381  C     
20   C         9.1120    2.4462   29.1927  C     
21   C         7.7955    2.9976   29.5458  C     
22   C         6.7264    2.1809   29.6253  C     
23   C         6.7509    0.7953   29.1897  C     
24   C         7.6561    4.3700   29.8118  C     
25   C         6.6009    5.1255   29.2296  C     
26   C         6.4467    6.4963   29.4888  C     
27   C         7.3427    7.1596   30.3497  C     
28   C         8.4008    6.4359   30.9331  C     
29   C         8.5622    5.0649   30.6630  C     
30   H         6.4446   -9.4797   34.4592  H     
31   H         8.2804   -9.4898   32.8770  H     
32   H         9.1286   -7.4025   31.9849  H     
33   H         5.4368   -7.4023   35.1643  H     
34   H         6.5184   -2.9367   34.3357  H     
35   H         7.2154   -1.2823   33.7908  H     
36   H         8.8204   -0.6891   33.4668  H     
37   H         6.5889   -1.0897   31.4062  H     
38   H         7.1402    0.4708   32.0508  H     
39   H         9.3298    0.1805   31.0463  H     
40   H         8.4080   -2.5068   29.9069  H     
41   H        10.0123   -1.7877   29.7565  H     
42   H        10.4322   -2.0582   32.1579  H     
43   H         9.9423   -3.5848   31.4579  H     
44   H         7.9959   -0.6932   28.7108  H     
45   H        10.1011    0.5717   28.7258  H     
46   H         8.8788    1.0258   27.5762  H     
47   H         9.7515    2.4813   30.0797  H     
48   H         9.5889    3.0889   28.4416  H     
49   H         5.8516    2.5490   29.9233  H     
50   H         6.4740    0.7807   28.1353  H     
51   H         5.9613    0.2366   29.6880  H     
52   H         5.9382    4.6731   28.5927  H     
53   H         5.6708    7.0252   29.0787  H     
54   H         7.2357    8.1580   30.5331  H     
55   H         9.0342    6.9086   31.5813  H     
56   H         9.3419    4.5749   31.1092  H     
@<TRIPOS>BOND
     1    1    2 2
     2    1    4 1
     3    2    3 1
     4    3    6 2
     5    4    5 2
     6    5    6 1
     7    5   10 1
     8    6    7 1
     9    7    8 2
    10    8    9 1
    11    8   12 1
    12    9   10 1
    13   10   11 2
    14   12   13 1
    15   12   17 1
    16   13   14 1
    17   14   15 1
    18   15   16 1
    19   15   18 1
    20   16   17 1
    21   18   19 1
    22   18   23 1
    23   19   20 1
    24   20   21 1
    25   21   22 2
    26   21   24 1
    27   22   23 1
    28   24   25 1
    29   24   29 2
    30   25   26 2
    31   26   27 1
    32   27   28 2
    33   28   29 1
    34    1   30 1
    35    2   31 1
    36    3   32 1
    37    4   33 1
    38    9   34 1
    39   13   35 1
    40   13   36 1
    41   14   37 1
    42   14   38 1
    43   15   39 1
    44   16   40 1
    45   16   41 1
    46   17   42 1
    47   17   43 1
    48   18   44 1
    49   19   45 1
    50   19   46 1
    51   20   47 1
    52   20   48 1
    53   22   49 1
    54   23   50 1
    55   23   51 1
    56   25   52 1
    57   26   53 1
    58   27   54 1
    59   28   55 1
    60   29   56 1
@<TRIPOS>PROPERTY_DATA
  Total_Score	| 5.9985
  Crash		| -1.9098
  Polar		| 1.1462
  FragIndex	| 1
  FragRMSD	| 0.980

