@<TRIPOS>MOLECULE
BindingDB_27709
 53 56 0 0 0
SMALL
NO_CHARGES


@<TRIPOS>ATOM
1    C         7.6640   -8.0280   32.3429  C     
2    C         6.8993   -8.4400   33.4456  C     
3    C         6.2993   -7.4749   34.2798  C     
4    C         6.4945   -6.0956   34.0698  C     
5    C         7.3278   -5.6961   33.0011  C     
6    C         7.9139   -6.6515   32.1161  C     
7    C         8.6548   -6.1715   31.0291  C     
8    N         7.5623   -4.3731   32.7419  N     
9    C         8.2761   -3.9398   31.6814  C     
10   N         8.7988   -4.8682   30.8267  N     
11   O         9.2598   -6.9189   30.2588  O     
12   C         8.3844   -2.5009   31.4277  C     
13   C         9.7999   -1.9876   30.9786  C     
14   C         9.7869   -1.0977   29.6862  C     
15   N         9.4409    0.3760   29.7679  N     
16   C         8.1673    2.2320   30.8462  C     
17   C         8.6009    0.8430   30.9197  C     
18   C         8.8486    0.8653   28.4896  C     
19   C         8.7436    2.4173   28.4805  C     
20   C         8.2392    2.9944   29.7304  C     
21   C         7.9703    4.3635   29.8130  C     
22   C         6.8174    6.4043   29.0230  C     
23   C         7.0710    5.0212   28.9194  C     
24   C         8.5938    5.1541   30.8033  C     
25   C         8.3408    6.5344   30.9134  C     
26   C         7.4445    7.1613   30.0337  C     
27   C         5.7808   -5.1463   34.9618  C     
28   F         7.1893    8.4372   30.1352  F     
29   H         8.0355   -8.7487   31.7046  H     
30   H         6.7138   -9.4262   33.6037  H     
31   H         5.7128   -7.7962   35.0548  H     
32   H         9.2973   -4.5642   30.0618  H     
33   H         7.6059   -2.2546   30.7020  H     
34   H         8.1161   -1.9538   32.3307  H     
35   H        10.2350   -1.4223   31.7987  H     
36   H        10.4829   -2.8468   30.8197  H     
37   H        10.7942   -1.1744   29.2563  H     
38   H         9.1638   -1.5728   28.9104  H     
39   H        10.3381    0.8508   29.8708  H     
40   H         7.7694    2.6036   31.6802  H     
41   H         7.7196    0.1969   31.0595  H     
42   H         9.2182    0.7719   31.8213  H     
43   H         9.4532    0.5563   27.6380  H     
44   H         7.8457    0.4257   28.3420  H     
45   H         9.7392    2.8255   28.2869  H     
46   H         8.0974    2.6998   27.6501  H     
47   H         6.1649    6.8489   28.3601  H     
48   H         6.5497    4.4948   28.2080  H     
49   H         9.2442    4.7379   31.4792  H     
50   H         8.7920    7.0919   31.6476  H     
51   H         4.7038   -5.3538   34.9382  H     
52   H         5.9180   -4.0993   34.6810  H     
53   H         6.1307   -5.2752   35.9930  H     
@<TRIPOS>BOND
     1    1    2 2
     2    1    6 1
     3    2    3 1
     4    3    4 2
     5    4    5 1
     6    4   27 1
     7    5    6 2
     8    5    8 1
     9    6    7 1
    10    7   10 1
    11    7   11 2
    12    8    9 2
    13    9   10 1
    14    9   12 1
    15   12   13 1
    16   13   14 1
    17   14   15 1
    18   15   17 1
    19   15   18 1
    20   16   17 1
    21   16   20 2
    22   18   19 1
    23   19   20 1
    24   20   21 1
    25   21   23 1
    26   21   24 2
    27   22   23 2
    28   22   26 1
    29   24   25 1
    30   25   26 2
    31   26   28 1
    32    1   29 1
    33    2   30 1
    34    3   31 1
    35   10   32 1
    36   12   33 1
    37   12   34 1
    38   13   35 1
    39   13   36 1
    40   14   37 1
    41   14   38 1
    42   15   39 1
    43   16   40 1
    44   17   41 1
    45   17   42 1
    46   18   43 1
    47   18   44 1
    48   19   45 1
    49   19   46 1
    50   22   47 1
    51   23   48 1
    52   24   49 1
    53   25   50 1
    54   27   51 1
    55   27   52 1
    56   27   53 1
@<TRIPOS>PROPERTY_DATA
  Total_Score	| 7.2097
  Crash		| -0.7586
  Polar		| 0.3503
  FragIndex	| 1
  FragRMSD	| 0.796

