@<TRIPOS>MOLECULE
BindingDB_27714
 54 57 0 0 0
SMALL
NO_CHARGES


@<TRIPOS>ATOM
1    C         5.7936   -7.1421   33.5438  C     
2    C         6.0514   -8.0488   32.5034  C     
3    C         7.1563   -7.8547   31.6654  C     
4    C         8.0112   -6.7569   31.8690  C     
5    C         7.7749   -5.7971   32.8952  C     
6    C         6.6373   -6.0125   33.7367  C     
7    C         6.4045   -5.0694   34.7406  C     
8    N         8.5972   -4.6642   33.1180  N     
9    C         8.2832   -3.8388   34.1423  C     
10   N         7.2194   -4.0437   34.9047  N     
11   O         5.4408   -5.1187   35.4940  O     
12   O         8.9234   -2.8352   34.4301  O     
13   C         9.7518   -4.3559   32.2716  C     
14   C         9.3689   -3.8652   30.8394  C     
15   C         8.9639   -2.3582   30.7101  C     
16   C        10.1488   -1.4327   30.2955  C     
17   N         9.8816    0.0413   30.2165  N     
18   C         8.9365    2.0222   31.4116  C     
19   C         9.4372    0.6563   31.5076  C     
20   C         9.0491    0.4645   29.0480  C     
21   C         9.0169    2.0152   28.9612  C     
22   C         8.6736    2.6406   30.2392  C     
23   C         8.0494    3.8878   30.2450  C     
24   C         5.9904    5.2149   30.1815  C     
25   C         6.6401    3.9682   30.1370  C     
26   C         8.7932    5.0860   30.3870  C     
27   C         8.1394    6.3325   30.4221  C     
28   C         6.7355    6.3968   30.3173  C     
29   F         4.7612   -7.3908   34.3070  F     
30   H         5.4385   -8.8568   32.3534  H     
31   H         7.3385   -8.5148   30.9032  H     
32   H         8.8051   -6.6742   31.2361  H     
33   H         7.0232   -3.4070   35.6108  H     
34   H        10.4207   -3.6100   32.7176  H     
35   H        10.3729   -5.2543   32.1926  H     
36   H        10.2183   -4.0616   30.1777  H     
37   H         8.5363   -4.4701   30.4756  H     
38   H         8.1972   -2.2925   29.9314  H     
39   H         8.5171   -1.9986   31.6481  H     
40   H        10.9727   -1.5930   30.9982  H     
41   H        10.5031   -1.7516   29.3147  H     
42   H        10.8006    0.4469   30.0297  H     
43   H         8.6906    2.4686   32.2708  H     
44   H         8.6522    0.0448   31.9679  H     
45   H        10.3054    0.6681   32.1738  H     
46   H         9.4810    0.0809   28.1178  H     
47   H         8.0249    0.0841   29.1342  H     
48   H        10.0051    2.3818   28.6618  H     
49   H         8.2999    2.3020   28.1836  H     
50   H         4.9705    5.2548   30.1201  H     
51   H         6.0771    3.1163   30.0414  H     
52   H         9.8158    5.0598   30.4746  H     
53   H         8.6823    7.1936   30.5181  H     
54   H         6.2592    7.3023   30.3412  H     
@<TRIPOS>BOND
     1    1    2 2
     2    1    6 1
     3    1   29 1
     4    2    3 1
     5    3    4 2
     6    4    5 1
     7    5    6 2
     8    5    8 1
     9    6    7 1
    10    7   10 1
    11    7   11 2
    12    8    9 1
    13    8   13 1
    14    9   10 1
    15    9   12 2
    16   13   14 1
    17   14   15 1
    18   15   16 1
    19   16   17 1
    20   17   19 1
    21   17   20 1
    22   18   19 1
    23   18   22 2
    24   20   21 1
    25   21   22 1
    26   22   23 1
    27   23   25 1
    28   23   26 2
    29   24   25 2
    30   24   28 1
    31   26   27 1
    32   27   28 2
    33    2   30 1
    34    3   31 1
    35    4   32 1
    36   10   33 1
    37   13   34 1
    38   13   35 1
    39   14   36 1
    40   14   37 1
    41   15   38 1
    42   15   39 1
    43   16   40 1
    44   16   41 1
    45   17   42 1
    46   18   43 1
    47   19   44 1
    48   19   45 1
    49   20   46 1
    50   20   47 1
    51   21   48 1
    52   21   49 1
    53   24   50 1
    54   25   51 1
    55   26   52 1
    56   27   53 1
    57   28   54 1
@<TRIPOS>PROPERTY_DATA
  Total_Score	| 10.4780
  Crash		| -0.8507
  Polar		| 3.6581
  FragIndex	| 1
  FragRMSD	| 0.741

