@<TRIPOS>MOLECULE
BindingDB_50220870
 57 61 0 0 0
SMALL
NO_CHARGES


@<TRIPOS>ATOM
1    C         4.9493   -5.3572   34.3471  C     
2    C         5.5392   -4.1162   34.6629  C     
3    C         6.7638   -3.7409   34.0778  C     
4    C         5.5782   -6.2290   33.4338  C     
5    C         6.8202   -5.8689   32.8456  C     
6    C         7.4060   -4.6082   33.1713  C     
7    N         8.5658   -4.2135   32.5676  N     
8    C         9.1703   -5.0013   31.6415  C     
9    N         8.6109   -6.2105   31.3400  N     
10   C         7.5051   -6.6680   31.9271  C     
11   O         7.0751   -7.7604   31.5717  O     
12   C        10.3327   -4.5172   30.8451  C     
13   C        11.2555   -3.4740   31.5401  C     
14   C        10.6835   -2.0315   31.5728  C     
15   C        10.2159   -1.5177   30.1694  C     
16   C         9.2340   -2.5531   29.5295  C     
17   C         9.8621   -3.9738   29.4598  C     
18   N         9.7571   -0.0821   30.1894  N     
19   C         9.0016    0.3537   28.9678  C     
20   C         8.8604    1.8948   28.9533  C     
21   C         8.3630    2.4305   30.2215  C     
22   C         8.5034    1.7251   31.3751  C     
23   C         9.0567    0.3896   31.4320  C     
24   C         7.8265    3.7143   30.2780  C     
25   C         8.6368    4.8542   30.5038  C     
26   C         8.0525    6.1308   30.6512  C     
27   C         6.6549    6.2812   30.5615  C     
28   C         5.8402    5.1566   30.3278  C     
29   C         6.4222    3.8797   30.1907  C     
30   H         4.0453   -5.6081   34.7587  H     
31   H         5.0706   -3.4656   35.3032  H     
32   H         7.1863   -2.8306   34.3020  H     
33   H         5.1240   -7.1191   33.2121  H     
34   H         9.0337   -6.7734   30.6736  H     
35   H        10.9511   -5.4071   30.6597  H     
36   H        11.4767   -3.7937   32.5684  H     
37   H        12.2059   -3.4513   30.9932  H     
38   H         9.8489   -2.0140   32.2787  H     
39   H        11.4754   -1.3576   31.9358  H     
40   H        11.1087   -1.5222   29.5316  H     
41   H         8.2920   -2.5880   30.0867  H     
42   H         9.0119   -2.2319   28.5096  H     
43   H        10.7352   -3.9489   28.7893  H     
44   H         9.1499   -4.6721   29.0088  H     
45   H        10.6234    0.4627   30.1421  H     
46   H         9.5239    0.0345   28.0568  H     
47   H         8.0046   -0.1022   28.9570  H     
48   H         9.8351    2.3460   28.7394  H     
49   H         8.1783    2.1673   28.1392  H     
50   H         8.1845    2.1247   32.2286  H     
51   H         8.2666   -0.3111   31.7151  H     
52   H         9.7927    0.4048   32.2477  H     
53   H         9.6529    4.7632   30.5978  H     
54   H         8.6420    6.9437   30.8285  H     
55   H         6.2305    7.2044   30.6611  H     
56   H         4.8328    5.2589   30.2607  H     
57   H         5.8099    3.0768   30.0330  H     
@<TRIPOS>BOND
     1    1    2 2
     2    1    4 1
     3    2    3 1
     4    3    6 2
     5    4    5 2
     6    5    6 1
     7    5   10 1
     8    6    7 1
     9    7    8 2
    10    8    9 1
    11   12    8 1
    12    9   10 1
    13   10   11 2
    14   12   13 1
    15   12   17 1
    16   13   14 1
    17   14   15 1
    18   15   16 1
    19   15   18 1
    20   16   17 1
    21   18   19 1
    22   18   23 1
    23   19   20 1
    24   20   21 1
    25   21   22 2
    26   21   24 1
    27   22   23 1
    28   24   25 2
    29   24   29 1
    30   25   26 1
    31   26   27 2
    32   27   28 1
    33   28   29 2
    34    1   30 1
    35    2   31 1
    36    3   32 1
    37    4   33 1
    38    9   34 1
    39   12   35 1
    40   13   36 1
    41   13   37 1
    42   14   38 1
    43   14   39 1
    44   15   40 1
    45   16   41 1
    46   16   42 1
    47   17   43 1
    48   17   44 1
    49   18   45 1
    50   19   46 1
    51   19   47 1
    52   20   48 1
    53   20   49 1
    54   22   50 1
    55   23   51 1
    56   23   52 1
    57   25   53 1
    58   26   54 1
    59   27   55 1
    60   28   56 1
    61   29   57 1
@<TRIPOS>PROPERTY_DATA
  Total_Score	| 7.7271
  Crash		| -1.4757
  Polar		| 1.2953
  FragIndex	| 1
  FragRMSD	| 1.102

