@<TRIPOS>MOLECULE
BindingDB_27713
 54 57 0 0 0
SMALL
NO_CHARGES


@<TRIPOS>ATOM
1    C         5.6292   -7.0434   33.3814  C     
2    C         5.9216   -7.9800   32.3801  C     
3    C         7.1164   -7.8709   31.6531  C     
4    C         8.0027   -6.8116   31.9111  C     
5    C         7.7262   -5.8121   32.8856  C     
6    C         6.5244   -5.9756   33.6487  C     
7    C         6.2895   -5.0627   34.6762  C     
8    N         8.5598   -4.7011   33.1431  N     
9    C         8.2490   -3.9019   34.1881  C     
10   N         7.1568   -4.0936   34.9180  N     
11   O         5.3066   -5.1223   35.4006  O     
12   O         8.9190   -2.9334   34.5337  O     
13   C         9.7199   -4.3951   32.3099  C     
14   C         9.3559   -3.9632   30.8559  C     
15   C         8.9274   -2.4723   30.6706  C     
16   C        10.1028   -1.5009   30.3067  C     
17   N         9.8032   -0.0376   30.1426  N     
18   C         8.8123    2.0063   31.1111  C     
19   C         9.1525    0.6081   31.3194  C     
20   C         9.0995    0.3176   28.8775  C     
21   C         9.0696    1.8623   28.7026  C     
22   C         8.8362    2.6609   29.9166  C     
23   C         8.6351    4.0769   29.8480  C     
24   C         8.4384    6.3017   30.9598  C     
25   C         8.7540    4.9227   30.9953  C     
26   C         8.2896    4.7497   28.6385  C     
27   C         7.9854    6.1289   28.5937  C     
28   C         8.0249    6.9050   29.7628  C     
29   H         4.7610   -7.1545   33.9160  H     
30   H         5.2753   -8.7527   32.1906  H     
31   H         7.3376   -8.5644   30.9336  H     
32   H         8.8582   -6.7838   31.3599  H     
33   H         6.9735   -3.4891   35.6572  H     
34   H        10.3645   -3.6217   32.7341  H     
35   H        10.3583   -5.2793   32.2714  H     
36   H        10.2096   -4.1707   30.2003  H     
37   H         8.5394   -4.5865   30.4909  H     
38   H         8.1888   -2.4349   29.8623  H     
39   H         8.4271   -2.1239   31.5831  H     
40   H        10.8836   -1.6127   31.0749  H     
41   H        10.5450   -1.8589   29.3612  H     
42   H        10.7308    0.3875   30.0525  H     
43   H         8.4900    2.4792   31.9318  H     
44   H         8.2505    0.0556   31.6036  H     
45   H         9.8653    0.5459   32.1446  H     
46   H         9.5952   -0.1327   28.0083  H     
47   H         8.0667   -0.0544   28.9079  H     
48   H        10.0046    2.1878   28.2486  H     
49   H         8.2677    2.0438   27.9907  H     
50   H         8.5151    6.8745   31.8045  H     
51   H         9.0919    4.5498   31.8955  H     
52   H         8.2330    4.2448   27.7525  H     
53   H         7.7211    6.5629   27.7043  H     
54   H         7.7844    7.8986   29.7315  H     
@<TRIPOS>BOND
     1    1    2 2
     2    1    6 1
     3    2    3 1
     4    3    4 2
     5    4    5 1
     6    5    6 2
     7    5    8 1
     8    6    7 1
     9    7   10 1
    10    7   11 2
    11    8    9 1
    12    8   13 1
    13    9   10 1
    14    9   12 2
    15   13   14 1
    16   14   15 1
    17   15   16 1
    18   16   17 1
    19   17   19 1
    20   17   20 1
    21   18   19 1
    22   18   22 2
    23   20   21 1
    24   21   22 1
    25   22   23 1
    26   23   25 1
    27   23   26 2
    28   24   25 2
    29   24   28 1
    30   26   27 1
    31   27   28 2
    32    1   29 1
    33    2   30 1
    34    3   31 1
    35    4   32 1
    36   10   33 1
    37   13   34 1
    38   13   35 1
    39   14   36 1
    40   14   37 1
    41   15   38 1
    42   15   39 1
    43   16   40 1
    44   16   41 1
    45   17   42 1
    46   18   43 1
    47   19   44 1
    48   19   45 1
    49   20   46 1
    50   20   47 1
    51   21   48 1
    52   21   49 1
    53   24   50 1
    54   25   51 1
    55   26   52 1
    56   27   53 1
    57   28   54 1
@<TRIPOS>PROPERTY_DATA
  Total_Score	| 10.9675
  Crash		| -0.7546
  Polar		| 3.7393
  FragIndex	| 1
  FragRMSD	| 0.669

