@<TRIPOS>MOLECULE
BindingDB_50220857
 57 61 0 0 0
SMALL
NO_CHARGES


@<TRIPOS>ATOM
1    C        12.1449  -10.5416   30.6372  C     
2    C        10.9465  -10.2865   31.3292  C     
3    C        10.5034   -8.9640   31.5087  C     
4    C        12.8918   -9.4803   30.0937  C     
5    C        12.4455   -8.1437   30.2449  C     
6    C        11.2543   -7.8938   30.9806  C     
7    N        10.8638   -6.6046   31.1938  N     
8    C        11.5411   -5.5440   30.6757  C     
9    N        12.6571   -5.8022   29.9330  N     
10   C        13.1080   -7.0342   29.7149  C     
11   O        14.1173   -7.1509   29.0332  O     
12   C        11.0375   -4.1661   30.9701  C     
13   C         9.5944   -3.9612   30.4044  C     
14   C         9.0526   -2.5168   30.6146  C     
15   C        10.0176   -1.4407   30.0185  C     
16   C        11.4157   -1.6110   30.6876  C     
17   C        11.9945   -3.0356   30.4786  C     
18   N         9.5986    0.0097   30.0706  N     
19   C         8.8382    0.4974   28.8780  C     
20   C         8.7663    2.0508   28.9127  C     
21   C         8.4237    2.6063   30.2252  C     
22   C         8.5336    1.8694   31.3468  C     
23   C         8.9384    0.4693   31.3377  C     
24   C         7.8822    3.8900   30.2994  C     
25   C         6.4889    4.0626   30.1528  C     
26   C         5.9112    5.3398   30.2611  C     
27   C         6.7204    6.4613   30.5104  C     
28   C         8.1105    6.3019   30.6644  C     
29   C         8.6909    5.0243   30.5643  C     
30   H        12.4728  -11.5055   30.5254  H     
31   H        10.4025  -11.0653   31.7083  H     
32   H         9.6381   -8.7837   32.0254  H     
33   H        13.7538   -9.6869   29.5859  H     
34   H        13.1521   -5.0632   29.5458  H     
35   H        10.9768   -4.0823   32.0594  H     
36   H         9.5835   -4.1918   29.3330  H     
37   H         8.9098   -4.6621   30.8982  H     
38   H         8.0712   -2.4324   30.1435  H     
39   H         8.9229   -2.3530   31.6882  H     
40   H        10.1629   -1.7064   28.9664  H     
41   H        12.1131   -0.8860   30.2544  H     
42   H        11.3491   -1.4055   31.7596  H     
43   H        12.9431   -3.1107   31.0164  H     
44   H        12.2011   -3.1622   29.4121  H     
45   H        10.4777    0.5279   30.0266  H     
46   H         9.3409    0.2084   27.9509  H     
47   H         7.8316    0.0761   28.8674  H     
48   H         9.7473    2.4528   28.6280  H     
49   H         8.0442    2.3726   28.1537  H     
50   H         8.2416    2.2532   32.2216  H     
51   H         8.0368   -0.1192   31.5335  H     
52   H         9.6289    0.3252   32.1708  H     
53   H         5.8795    3.2575   29.9765  H     
54   H         4.9016    5.4465   30.1588  H     
55   H         6.2974    7.3898   30.5762  H     
56   H         8.6969    7.1208   30.8554  H     
57   H         9.7030    4.9253   30.6803  H     
@<TRIPOS>BOND
     1    1    2 2
     2    1    4 1
     3    2    3 1
     4    3    6 2
     5    4    5 2
     6    5    6 1
     7    5   10 1
     8    6    7 1
     9    7    8 2
    10    8    9 1
    11   12    8 1
    12    9   10 1
    13   10   11 2
    14   12   13 1
    15   12   17 1
    16   13   14 1
    17   14   15 1
    18   15   16 1
    19   15   18 1
    20   16   17 1
    21   18   19 1
    22   18   23 1
    23   19   20 1
    24   20   21 1
    25   21   22 2
    26   21   24 1
    27   22   23 1
    28   24   25 2
    29   24   29 1
    30   25   26 1
    31   26   27 2
    32   27   28 1
    33   28   29 2
    34    1   30 1
    35    2   31 1
    36    3   32 1
    37    4   33 1
    38    9   34 1
    39   12   35 1
    40   13   36 1
    41   13   37 1
    42   14   38 1
    43   14   39 1
    44   15   40 1
    45   16   41 1
    46   16   42 1
    47   17   43 1
    48   17   44 1
    49   18   45 1
    50   19   46 1
    51   19   47 1
    52   20   48 1
    53   20   49 1
    54   22   50 1
    55   23   51 1
    56   23   52 1
    57   25   53 1
    58   26   54 1
    59   27   55 1
    60   28   56 1
    61   29   57 1
@<TRIPOS>PROPERTY_DATA
  Total_Score	| 5.5121
  Crash		| -1.1379
  Polar		| 1.2949
  FragIndex	| 1
  FragRMSD	| 0.911

