@<TRIPOS>MOLECULE
BindingDB_11938
 35 37 0 0 0
SMALL
NO_CHARGES


@<TRIPOS>ATOM
1    C        -2.9637    3.9455   14.8075  C     
2    C        -2.8000    5.1909   14.3216  C     
3    N        -3.7143    6.1823   14.3885  N     
4    S        -5.2980    5.9080   14.8996  S     
5    O        -5.7092    6.7683   16.1679  O     
6    O        -6.3600    5.9200   13.7150  O     
7    C        -4.1347    3.4920   15.3897  C     
8    C        -5.2790    4.2906   15.4863  C     
9    C        -4.3135    2.2250   15.9886  C     
10   C        -5.5902    2.0037   16.5292  C     
11   S        -6.5316    3.4111   16.2744  S     
12   O        -5.9191   -0.6690   16.4021  O     
13   O        -5.2403    0.2445   18.6493  O     
14   S        -6.1055    0.5866   17.3614  S     
15   N        -7.7276    0.5447   17.7864  N     
16   C        -3.3480    7.4629   14.1260  C     
17   C        -2.7941    8.2771   15.1479  C     
18   C        -2.2859    9.5654   14.8373  C     
19   C        -2.3788   10.0540   13.5068  C     
20   C        -2.9587    9.2497   12.4984  C     
21   C        -3.4161    7.9442   12.8018  C     
22   O        -1.7677   10.3855   15.7976  O     
23   C        -0.4152   10.0411   16.1574  C     
24   H        -2.1862    3.3125   14.7650  H     
25   H        -1.9082    5.3786   13.9070  H     
26   H        -3.5821    1.5076   16.0144  H     
27   H        -8.3728    0.0646   17.2341  H     
28   H        -8.0463    1.0327   18.5637  H     
29   H        -2.7187    7.9057   16.1009  H     
30   H        -2.0222   10.9850   13.2629  H     
31   H        -3.0343    9.6065   11.5471  H     
32   H        -3.8335    7.3750   12.0694  H     
33   H        -0.3915    9.1080   16.7322  H     
34   H        -0.0119   10.8461   16.7838  H     
35   H         0.2266    9.9508   15.2739  H     
@<TRIPOS>BOND
     1    1    2 2
     2    1    7 1
     3    2    3 1
     4    3    4 1
     5    3   16 1
     6    4    5 2
     7    4    6 2
     8    4    8 1
     9    7    8 2
    10    7    9 1
    11    8   11 1
    12    9   10 2
    13   10   11 1
    14   10   14 1
    15   12   14 2
    16   13   14 2
    17   14   15 am
    18   16   17 2
    19   16   21 1
    20   17   18 1
    21   18   19 2
    22   18   22 1
    23   19   20 1
    24   20   21 2
    25   22   23 1
    26    1   24 1
    27    2   25 1
    28    9   26 1
    29   15   27 1
    30   15   28 1
    31   17   29 1
    32   19   30 1
    33   20   31 1
    34   21   32 1
    35   23   33 1
    36   23   34 1
    37   23   35 1
@<TRIPOS>PROPERTY_DATA
  Total_Score	| 5.1232
  Crash		| -2.0174
  Polar		| 2.4369
  FragIndex	| 1
  FragRMSD	| 1.049

