@<TRIPOS>MOLECULE
BindingDB_50306553
 35 36 0 0 0
SMALL
NO_CHARGES


@<TRIPOS>ATOM
1    N        33.4627   23.7843   28.9412  N     
2    C        32.8086   23.0584   27.9152  C     
3    C        33.3472   23.2384   26.4646  C     
4    O        33.1692   24.6044   26.0886  O     
5    C        32.5995   22.3103   25.4738  C     
6    O        33.1951   22.3511   24.1796  O     
7    C        32.5771   20.8334   25.9647  C     
8    O        31.7449   20.0956   25.0611  O     
9    C        32.1118   20.7391   27.4530  C     
10   O        32.8635   21.6621   28.2821  O     
11   C        32.3218   19.3508   28.1101  C     
12   O        31.2300   18.4366   27.9148  O     
13   N        32.9743   23.9083   30.0758  N     
14   N        33.6791   24.5955   30.8058  N     
15   C        34.7116   24.9581   30.1587  C     
16   C        34.5695   24.4375   28.9448  C     
17   C        35.7049   25.7793   30.6405  C     
18   O        35.5470   26.4048   31.8386  O     
19   O        36.8276   25.9963   29.9129  O     
20   N        36.4651   27.2522   32.3786  N     
21   H        31.7591   23.3907   27.9261  H     
22   H        34.4076   22.9936   26.4384  H     
23   H        33.1546   24.6183   25.1052  H     
24   H        31.5578   22.6469   25.3808  H     
25   H        32.9104   23.1992   23.7861  H     
26   H        33.5958   20.4165   25.8963  H     
27   H        31.8369   19.1383   25.3419  H     
28   H        31.0459   20.9851   27.5063  H     
29   H        33.2472   18.8939   27.7284  H     
30   H        32.4484   19.4801   29.1993  H     
31   H        31.3794   18.0584   27.0060  H     
32   H        35.1952   24.5664   28.1850  H     
33   H        37.3103   26.7314   32.6251  H     
34   H        36.0808   27.6753   33.2253  H     
35   H        36.6896   27.9839   31.7079  H     
@<TRIPOS>BOND
     1    2    1 1
     2    1   13 1
     3    1   16 1
     4    2    3 1
     5    2   10 1
     6    3    4 1
     7    3    5 1
     8    5    6 1
     9    5    7 1
    10    7    8 1
    11    7    9 1
    12    9   10 1
    13    9   11 1
    14   11   12 1
    15   13   14 2
    16   14   15 1
    17   15   16 2
    18   15   17 1
    19   17   18 1
    20   17   19 2
    21   18   20 1
    22    2   21 1
    23    3   22 1
    24    4   23 1
    25    5   24 1
    26    6   25 1
    27    7   26 1
    28    8   27 1
    29    9   28 1
    30   11   29 1
    31   11   30 1
    32   12   31 1
    33   16   32 1
    34   20   33 1
    35   20   34 1
    36   20   35 1
@<TRIPOS>PROPERTY_DATA
  Total_Score	| 9.1486
  Crash		| -1.1241
  Polar		| 9.2279
  FragIndex	| 1
  FragRMSD	| 0.557

