@<TRIPOS>MOLECULE
BindingDB_50306551
 45 48 0 0 0
SMALL
NO_CHARGES


@<TRIPOS>ATOM
1    N        33.6643   23.6143   28.9693  N     
2    C        33.0004   22.8550   27.9830  C     
3    C        33.3879   23.1959   26.5068  C     
4    O        33.0748   24.5600   26.2433  O     
5    C        32.6188   22.2698   25.5217  C     
6    O        33.1372   22.3872   24.1971  O     
7    C        32.7195   20.7739   25.9292  C     
8    O        31.8370   20.0029   25.1114  O     
9    C        32.3932   20.5721   27.4445  C     
10   O        33.2191   21.4477   28.2502  O     
11   C        32.5555   19.1041   27.9265  C     
12   O        33.4636   18.3579   27.1066  O     
13   N        33.1056   23.9962   30.0155  N     
14   N        33.8486   24.6803   30.7088  N     
15   C        34.9785   24.7750   30.1169  C     
16   C        34.8739   24.0505   29.0002  C     
17   C        36.0182   25.5446   30.5454  C     
18   C        36.5958   25.2375   31.7326  C     
19   C        37.6529   25.9452   32.2286  C     
20   C        38.1909   26.9732   31.5429  C     
21   C        36.5225   26.6463   29.7962  C     
22   C        37.6528   27.3598   30.3103  C     
23   C        38.1943   28.4546   29.5968  C     
24   C        37.6214   28.8635   28.3810  C     
25   C        36.4950   28.1866   27.8764  C     
26   C        35.9501   27.0952   28.5751  C     
27   H        31.9275   23.0650   28.0804  H     
28   H        34.4594   23.0470   26.3676  H     
29   H        33.0131   24.6470   25.2691  H     
30   H        31.5652   22.5606   25.4930  H     
31   H        32.8141   23.2385   23.8479  H     
32   H        33.7427   20.4345   25.7456  H     
33   H        31.9185   19.0816   25.4349  H     
34   H        31.3422   20.8389   27.6148  H     
35   H        32.9117   19.0798   28.9637  H     
36   H        31.5776   18.6071   27.8973  H     
37   H        32.9532   17.5643   26.8309  H     
38   H        35.5730   23.9322   28.2987  H     
39   H        36.2448   24.4873   32.2878  H     
40   H        38.0411   25.6893   33.1074  H     
41   H        38.9705   27.4574   31.9291  H     
42   H        39.0062   28.9669   29.9615  H     
43   H        38.0209   29.6520   27.8666  H     
44   H        36.0728   28.5025   27.0019  H     
45   H        35.1175   26.6393   28.1909  H     
@<TRIPOS>BOND
     1    2    1 1
     2    1   13 1
     3    1   16 1
     4    2    3 1
     5    2   10 1
     6    3    4 1
     7    3    5 1
     8    5    6 1
     9    5    7 1
    10    7    8 1
    11    7    9 1
    12    9   10 1
    13    9   11 1
    14   11   12 1
    15   13   14 2
    16   14   15 1
    17   15   16 2
    18   15   17 1
    19   17   18 2
    20   17   21 1
    21   18   19 1
    22   19   20 2
    23   20   22 1
    24   21   22 1
    25   21   26 2
    26   22   23 2
    27   23   24 1
    28   24   25 2
    29   25   26 1
    30    2   27 1
    31    3   28 1
    32    4   29 1
    33    5   30 1
    34    6   31 1
    35    7   32 1
    36    8   33 1
    37    9   34 1
    38   11   35 1
    39   11   36 1
    40   12   37 1
    41   16   38 1
    42   18   39 1
    43   19   40 1
    44   20   41 1
    45   23   42 1
    46   24   43 1
    47   25   44 1
    48   26   45 1
@<TRIPOS>PROPERTY_DATA
  Total_Score	| 10.4605
  Crash		| -0.9570
  Polar		| 8.1615
  FragIndex	| 1
  FragRMSD	| 0.445

