@<TRIPOS>MOLECULE
BindingDB_50306552
 35 36 0 0 0
SMALL
NO_CHARGES


@<TRIPOS>ATOM
1    N        33.4993   23.5849   28.9072  N     
2    C        32.7674   22.9392   27.8900  C     
3    C        33.3483   23.1041   26.4511  C     
4    O        33.3099   24.4944   26.1192  O     
5    C        32.5444   22.2479   25.4285  C     
6    O        33.1791   22.2690   24.1433  O     
7    C        32.4223   20.7808   25.9156  C     
8    O        31.5713   20.0864   24.9961  O     
9    C        31.8447   20.7294   27.3666  C     
10   O        32.6510   21.5453   28.2433  O     
11   C        31.7201   19.3074   27.9804  C     
12   O        32.6409   19.0626   29.0455  O     
13   N        32.9920   23.8569   30.0019  N     
14   N        33.8231   24.2913   30.7923  N     
15   C        34.9630   24.3290   30.2259  C     
16   C        34.7608   23.8480   29.0031  C     
17   C        36.1282   24.7340   30.8296  C     
18   O        37.3302   24.6074   30.2096  O     
19   O        36.0675   25.2380   32.0820  O     
20   C        38.5862   24.9952   30.7849  C     
21   H        31.7683   23.3854   27.8817  H     
22   H        34.3847   22.7712   26.4133  H     
23   H        33.1068   24.5642   25.1582  H     
24   H        31.5370   22.6746   25.3186  H     
25   H        32.9491   23.1405   23.7472  H     
26   H        33.4084   20.3043   25.9034  H     
27   H        31.5832   19.1431   25.2697  H     
28   H        30.8316   21.1443   27.3321  H     
29   H        30.7162   19.1875   28.4040  H     
30   H        31.8481   18.5312   27.2146  H     
31   H        33.5238   18.9827   28.6271  H     
32   H        35.4572   23.7101   28.3074  H     
33   H        38.6023   26.0760   30.9679  H     
34   H        39.3989   24.7418   30.0968  H     
35   H        38.7461   24.4656   31.7315  H     
@<TRIPOS>BOND
     1    2    1 1
     2    1   13 1
     3    1   16 1
     4    2    3 1
     5    2   10 1
     6    3    4 1
     7    3    5 1
     8    5    6 1
     9    5    7 1
    10    7    8 1
    11    7    9 1
    12    9   10 1
    13    9   11 1
    14   11   12 1
    15   13   14 2
    16   14   15 1
    17   15   16 2
    18   15   17 1
    19   17   18 1
    20   17   19 2
    21   18   20 1
    22    2   21 1
    23    3   22 1
    24    4   23 1
    25    5   24 1
    26    6   25 1
    27    7   26 1
    28    8   27 1
    29    9   28 1
    30   11   29 1
    31   11   30 1
    32   12   31 1
    33   16   32 1
    34   20   33 1
    35   20   34 1
    36   20   35 1
@<TRIPOS>PROPERTY_DATA
  Total_Score	| 8.5015
  Crash		| -1.0716
  Polar		| 7.9013
  FragIndex	| 1
  FragRMSD	| 0.422

