@<TRIPOS>MOLECULE
BindingDB_50306554
 42 44 0 0 0
SMALL
NO_CHARGES


@<TRIPOS>ATOM
1    N        33.6543   23.6940   28.8783  N     
2    C        32.9622   22.9970   27.8657  C     
3    C        33.5118   23.1303   26.4133  C     
4    O        33.5708   24.4951   25.9902  O     
5    C        32.6768   22.2517   25.4456  C     
6    O        33.1926   22.3670   24.1235  O     
7    C        32.6808   20.7701   25.9237  C     
8    O        31.8056   20.0170   25.0701  O     
9    C        32.2231   20.6778   27.4135  C     
10   O        32.9659   21.5949   28.2561  O     
11   C        32.3331   19.2343   28.0292  C     
12   O        31.1321   18.4831   27.7874  O     
13   N        33.1727   23.9163   30.0024  N     
14   N        33.9864   24.4688   30.7460  N     
15   C        35.0818   24.6287   30.0936  C     
16   C        34.8679   24.1102   28.8893  C     
17   C        36.3574   25.0777   30.6305  C     
18   C        36.8716   26.3330   30.0051  C     
19   C        37.1454   26.4036   28.6158  C     
20   C        37.6560   27.5785   28.0304  C     
21   C        37.9301   28.6957   28.8327  C     
22   C        37.7018   28.6353   30.2199  C     
23   C        37.1603   27.4670   30.7961  C     
24   H        31.9265   23.3740   27.8668  H     
25   H        34.5387   22.7347   26.3967  H     
26   H        32.9536   24.6082   25.2310  H     
27   H        31.6380   22.6067   25.4148  H     
28   H        32.8033   23.2024   23.7776  H     
29   H        33.6956   20.3640   25.8412  H     
30   H        31.9281   19.0806   25.3367  H     
31   H        31.1734   20.9917   27.4550  H     
32   H        33.1780   18.6725   27.5985  H     
33   H        32.4776   19.2926   29.1064  H     
34   H        31.2532   18.1024   26.8954  H     
35   H        35.5700   23.9293   28.2065  H     
36   H        36.2447   25.2056   31.7068  H     
37   H        37.1001   24.2911   30.4864  H     
38   H        36.9788   25.6021   28.0034  H     
39   H        37.8184   27.6209   27.0241  H     
40   H        38.3023   29.5534   28.4140  H     
41   H        37.9155   29.4345   30.8140  H     
42   H        36.9953   27.4474   31.8112  H     
@<TRIPOS>BOND
     1    2    1 1
     2    1   13 1
     3    1   16 1
     4    2    3 1
     5    2   10 1
     6    3    4 1
     7    3    5 1
     8    5    6 1
     9    5    7 1
    10    7    8 1
    11    7    9 1
    12    9   10 1
    13    9   11 1
    14   11   12 1
    15   13   14 2
    16   14   15 1
    17   15   16 2
    18   15   17 1
    19   17   18 1
    20   18   19 2
    21   18   23 1
    22   19   20 1
    23   20   21 2
    24   21   22 1
    25   22   23 2
    26    2   24 1
    27    3   25 1
    28    4   26 1
    29    5   27 1
    30    6   28 1
    31    7   29 1
    32    8   30 1
    33    9   31 1
    34   11   32 1
    35   11   33 1
    36   12   34 1
    37   16   35 1
    38   17   36 1
    39   17   37 1
    40   19   38 1
    41   20   39 1
    42   21   40 1
    43   22   41 1
    44   23   42 1
@<TRIPOS>PROPERTY_DATA
  Total_Score	| 9.8768
  Crash		| -1.3168
  Polar		| 7.8044
  FragIndex	| 1
  FragRMSD	| 0.767

