@<TRIPOS>MOLECULE
BindingDB_50306549
 39 41 0 0 0
SMALL
NO_CHARGES


@<TRIPOS>ATOM
1    N        33.5713   23.7547   28.8490  N     
2    C        32.8782   23.0359   27.8539  C     
3    C        33.3485   23.2266   26.3746  C     
4    O        33.1688   24.5954   26.0047  O     
5    C        32.5500   22.2880   25.4229  C     
6    O        33.0934   22.3304   24.1001  O     
7    C        32.5750   20.8169   25.9210  C     
8    O        31.7198   20.0409   25.0826  O     
9    C        32.1351   20.7420   27.4163  C     
10   O        32.9558   21.6343   28.2058  O     
11   C        32.2566   19.3230   28.0357  C     
12   O        31.1296   18.5077   27.7316  O     
13   N        33.2237   23.7301   30.0357  N     
14   N        33.9616   24.4173   30.7305  N     
15   C        34.8702   24.9494   29.9996  C     
16   C        34.6065   24.5115   28.7698  C     
17   C        35.8901   25.7951   30.4625  C     
18   C        36.0220   26.0822   31.8506  C     
19   C        37.0416   26.9288   32.3280  C     
20   C        37.9501   27.5133   31.4305  C     
21   C        37.8419   27.2463   30.0562  C     
22   C        36.8241   26.3979   29.5811  C     
23   H        31.8291   23.3555   27.9065  H     
24   H        34.4124   22.9809   26.2904  H     
25   H        33.2163   24.6222   25.0277  H     
26   H        31.5099   22.6277   25.3770  H     
27   H        32.8210   23.1912   23.7183  H     
28   H        33.5954   20.4371   25.8224  H     
29   H        31.8396   19.1131   25.3712  H     
30   H        31.0876   21.0538   27.5042  H     
31   H        33.1637   18.8179   27.6894  H     
32   H        32.3058   19.3958   29.1231  H     
33   H        31.3414   18.0749   26.8809  H     
34   H        35.1209   24.7184   27.9499  H     
35   H        35.3771   25.6767   32.5324  H     
36   H        37.1175   27.1260   33.3289  H     
37   H        38.6889   28.1303   31.7760  H     
38   H        38.5014   27.6705   29.3996  H     
39   H        36.7801   26.2298   28.5725  H     
@<TRIPOS>BOND
     1    2    1 1
     2    1   13 1
     3    1   16 1
     4    2    3 1
     5    2   10 1
     6    3    4 1
     7    3    5 1
     8    5    6 1
     9    5    7 1
    10    7    8 1
    11    7    9 1
    12    9   10 1
    13    9   11 1
    14   11   12 1
    15   13   14 2
    16   14   15 1
    17   15   16 2
    18   15   17 1
    19   17   18 2
    20   17   22 1
    21   18   19 1
    22   19   20 2
    23   20   21 1
    24   21   22 2
    25    2   23 1
    26    3   24 1
    27    4   25 1
    28    5   26 1
    29    6   27 1
    30    7   28 1
    31    8   29 1
    32    9   30 1
    33   11   31 1
    34   11   32 1
    35   12   33 1
    36   16   34 1
    37   18   35 1
    38   19   36 1
    39   20   37 1
    40   21   38 1
    41   22   39 1
@<TRIPOS>PROPERTY_DATA
  Total_Score	| 8.6978
  Crash		| -0.9994
  Polar		| 7.9098
  FragIndex	| 1
  FragRMSD	| 0.626

