@<TRIPOS>MOLECULE
BindingDB_50306560
 31 32 0 0 0
SMALL
NO_CHARGES


@<TRIPOS>ATOM
1    N        33.6269   23.4058   28.6953  N     
2    C        33.2523   22.4533   27.7296  C     
3    C        33.0480   23.0388   26.3032  C     
4    O        32.1651   24.1549   26.3203  O     
5    C        32.4766   21.9848   25.3089  C     
6    O        33.5281   21.1793   24.7699  O     
7    C        31.3289   21.1239   25.9259  C     
8    O        30.1148   21.8766   25.8021  O     
9    C        31.5281   20.7433   27.4218  C     
10   O        32.0377   21.8313   28.2040  O     
11   C        32.2515   19.3866   27.6980  C     
12   O        33.3546   19.1471   26.7772  O     
13   N        32.9262   23.7353   29.6697  N     
14   N        33.4861   24.5867   30.3574  N     
15   C        34.6317   24.8395   29.8492  C     
16   C        34.7230   24.0537   28.7789  C     
17   C        35.5331   25.7497   30.3199  C     
18   O        35.2188   26.5642   31.3571  O     
19   O        36.7782   25.8475   29.7912  O     
20   H        34.0289   21.6811   27.6692  H     
21   H        34.0164   23.4016   25.9302  H     
22   H        32.2930   24.5989   25.4565  H     
23   H        32.0863   22.5103   24.4363  H     
24   H        33.9714   20.7468   25.5159  H     
25   H        31.1869   20.2160   25.3362  H     
26   H        29.3993   21.2176   25.6703  H     
27   H        30.5252   20.5755   27.8406  H     
28   H        32.6179   19.3688   28.7195  H     
29   H        31.5511   18.5726   27.5465  H     
30   H        34.0970   18.7949   27.3420  H     
31   H        35.5063   23.9935   28.1621  H     
@<TRIPOS>BOND
     1    2    1 1
     2    1   13 1
     3    1   16 1
     4    2    3 1
     5    2   10 1
     6    3    4 1
     7    3    5 1
     8    5    6 1
     9    5    7 1
    10    7    8 1
    11    7    9 1
    12    9   10 1
    13    9   11 1
    14   11   12 1
    15   13   14 2
    16   14   15 1
    17   15   16 2
    18   15   17 1
    19   17   18 1
    20   17   19 2
    21    2   20 1
    22    3   21 1
    23    4   22 1
    24    5   23 1
    25    6   24 1
    26    7   25 1
    27    8   26 1
    28    9   27 1
    29   11   28 1
    30   11   29 1
    31   12   30 1
    32   16   31 1
@<TRIPOS>PROPERTY_DATA
  Total_Score	| 5.1898
  Crash		| -0.5884
  Polar		| 4.1287
  FragIndex	| 1
  FragRMSD	| 0.996

