@<TRIPOS>MOLECULE
BindingDB_50306555
 33 34 0 0 0
SMALL
NO_CHARGES


@<TRIPOS>ATOM
1    N        33.5598   23.6326   28.8971  N     
2    C        33.3277   22.5761   27.9924  C     
3    C        33.4019   23.0529   26.5097  C     
4    O        32.4405   24.0796   26.2511  O     
5    C        33.1879   21.8495   25.5539  C     
6    O        34.3127   20.9729   25.6097  O     
7    C        31.8740   21.0775   25.8832  C     
8    O        30.7594   21.8459   25.4355  O     
9    C        31.6825   20.7998   27.4106  C     
10   O        32.0516   21.9375   28.2310  O     
11   C        32.2921   19.4607   27.9130  C     
12   O        33.3181   18.9556   27.0677  O     
13   N        32.8965   23.8741   29.9154  N     
14   N        33.3788   24.8012   30.5578  N     
15   C        34.4310   25.2079   29.9618  C     
16   C        34.5600   24.4390   28.8897  C     
17   C        35.3023   26.2778   30.3949  C     
18   O        35.6443   27.1329   29.3037  O     
19   H        34.1123   21.8337   28.1722  H     
20   H        34.3861   23.4833   26.3123  H     
21   H        32.5850   24.3451   25.3130  H     
22   H        33.1458   22.2179   24.5248  H     
23   H        35.0804   21.5273   25.8808  H     
24   H        31.8528   20.1398   25.3232  H     
25   H        31.1351   22.5741   24.9030  H     
26   H        30.6058   20.6773   27.5768  H     
27   H        32.6975   19.6003   28.9178  H     
28   H        31.5051   18.7050   27.9715  H     
29   H        33.9137   18.4530   27.6634  H     
30   H        35.3051   24.4692   28.2322  H     
31   H        34.8242   26.8808   31.1709  H     
32   H        36.2228   25.8553   30.8071  H     
33   H        35.2795   28.0134   29.5468  H     
@<TRIPOS>BOND
     1    2    1 1
     2    1   13 1
     3    1   16 1
     4    2    3 1
     5    2   10 1
     6    3    4 1
     7    3    5 1
     8    5    6 1
     9    5    7 1
    10    7    8 1
    11    7    9 1
    12    9   10 1
    13    9   11 1
    14   11   12 1
    15   13   14 2
    16   14   15 1
    17   15   16 2
    18   15   17 1
    19   17   18 1
    20    2   19 1
    21    3   20 1
    22    4   21 1
    23    5   22 1
    24    6   23 1
    25    7   24 1
    26    8   25 1
    27    9   26 1
    28   11   27 1
    29   11   28 1
    30   12   29 1
    31   16   30 1
    32   17   31 1
    33   17   32 1
    34   18   33 1
@<TRIPOS>PROPERTY_DATA
  Total_Score	| 5.1888
  Crash		| -1.2507
  Polar		| 5.4156
  FragIndex	| 1
  FragRMSD	| 0.982

