@<TRIPOS>MOLECULE
BindingDB_50306548
 33 34 0 0 0
SMALL
NO_CHARGES


@<TRIPOS>ATOM
1    N        33.5297   23.5309   28.9365  N     
2    C        32.7706   22.9220   27.9098  C     
3    C        33.2965   23.1137   26.4461  C     
4    O        33.2086   24.5039   26.1028  O     
5    C        32.4826   22.2505   25.4326  C     
6    O        33.0916   22.2671   24.1390  O     
7    C        32.3833   20.7758   25.9088  C     
8    O        31.5516   20.0500   24.9935  O     
9    C        31.8134   20.7138   27.3613  C     
10   O        32.6421   21.5174   28.2436  O     
11   C        31.6801   19.2634   27.9226  C     
12   O        32.5321   19.0204   29.0357  O     
13   N        33.0435   23.8256   30.0338  N     
14   N        33.8474   24.3704   30.7840  N     
15   C        34.9603   24.4422   30.1743  C     
16   C        34.7630   23.8906   28.9769  C     
17   C        36.1712   25.0702   30.6717  C     
18   O        37.3149   24.2486   30.4118  O     
19   H        31.7769   23.3803   27.9333  H     
20   H        34.3574   22.8236   26.3923  H     
21   H        33.1070   24.5385   25.1256  H     
22   H        31.4705   22.6544   25.3435  H     
23   H        32.8708   23.1372   23.7519  H     
24   H        33.3821   20.3171   25.8962  H     
25   H        31.5903   19.1013   25.2693  H     
26   H        30.8011   21.1369   27.3373  H     
27   H        30.6508   19.0950   28.2534  H     
28   H        31.8942   18.5082   27.1648  H     
29   H        33.4357   18.9599   28.6716  H     
30   H        35.4290   23.8172   28.2390  H     
31   H        36.3130   26.0342   30.1728  H     
32   H        36.1122   25.2570   31.7513  H     
33   H        37.1731   23.4347   30.9530  H     
@<TRIPOS>BOND
     1    2    1 1
     2    1   13 1
     3    1   16 1
     4    2    3 1
     5    2   10 1
     6    3    4 1
     7    3    5 1
     8    5    6 1
     9    5    7 1
    10    7    8 1
    11    7    9 1
    12    9   10 1
    13    9   11 1
    14   11   12 1
    15   13   14 2
    16   14   15 1
    17   15   16 2
    18   15   17 1
    19   17   18 1
    20    2   19 1
    21    3   20 1
    22    4   21 1
    23    5   22 1
    24    6   23 1
    25    7   24 1
    26    8   25 1
    27    9   26 1
    28   11   27 1
    29   11   28 1
    30   12   29 1
    31   16   30 1
    32   17   31 1
    33   17   32 1
    34   18   33 1
@<TRIPOS>PROPERTY_DATA
  Total_Score	| 8.0051
  Crash		| -1.1191
  Polar		| 8.0596
  FragIndex	| 1
  FragRMSD	| 0.370

