@<TRIPOS>MOLECULE
BindingDB_50306559
 49 52 0 0 0
SMALL
NO_CHARGES


@<TRIPOS>ATOM
1    N        33.4337   23.8739   28.4609  N     
2    C        32.5804   23.3409   27.4532  C     
3    C        33.3024   23.1343   26.0738  C     
4    O        33.6205   24.3666   25.4190  O     
5    C        32.4696   22.2188   25.1388  C     
6    O        33.1001   22.1391   23.8729  O     
7    C        32.3163   20.8200   25.7817  C     
8    O        31.5036   19.9971   24.9315  O     
9    C        31.6591   20.9574   27.1937  C     
10   O        32.2408   22.0210   27.9942  O     
11   C        31.8197   19.6401   28.0313  C     
12   O        33.0480   19.5621   28.7508  O     
13   N        33.1071   24.0044   29.6581  N     
14   N        33.9247   24.6744   30.2865  N     
15   C        34.8676   25.0466   29.4934  C     
16   C        34.5653   24.4748   28.3323  C     
17   C        31.4408   24.2514   27.3072  C     
18   N        30.2562   23.8590   26.8599  N     
19   O        31.5807   25.4763   27.4219  O     
20   C        35.8964   25.9533   29.7558  C     
21   C        36.8902   26.3048   28.7930  C     
22   C        37.8873   27.2436   29.0616  C     
23   C        35.9586   26.6003   31.0204  C     
24   C        36.9571   27.5529   31.3039  C     
25   C        37.9406   27.8771   30.3248  C     
26   C        38.9325   28.8035   30.6425  C     
27   C        38.9769   29.3589   31.8793  C     
28   C        38.0008   29.0871   32.7988  C     
29   C        37.0239   28.2027   32.5398  C     
30   H        34.2578   22.6325   26.2502  H     
31   H        32.8040   24.6291   24.9437  H     
32   H        31.4739   22.6481   24.9770  H     
33   H        33.0416   23.0504   23.5135  H     
34   H        33.3111   20.3523   25.8653  H     
35   H        31.5457   19.0922   25.3118  H     
36   H        30.6045   21.1769   27.0735  H     
37   H        31.0200   19.5746   28.7779  H     
38   H        31.7474   18.7405   27.4145  H     
39   H        33.7672   19.5762   28.0775  H     
40   H        35.0868   24.5890   27.4990  H     
41   H        29.5594   24.5345   26.7318  H     
42   H        30.1057   22.9712   26.5471  H     
43   H        36.8941   25.8752   27.8627  H     
44   H        38.5833   27.4534   28.3461  H     
45   H        35.2511   26.3942   31.7251  H     
46   H        39.6388   29.0392   29.9939  H     
47   H        39.7087   29.9738   32.1164  H     
48   H        38.0232   29.5495   33.6789  H     
49   H        36.3517   27.9946   33.2445  H     
@<TRIPOS>BOND
     1    2    1 1
     2    1   13 1
     3    1   16 1
     4    2    3 1
     5    2   10 1
     6    2   17 1
     7    3    4 1
     8    3    5 1
     9    5    6 1
    10    5    7 1
    11    7    8 1
    12    7    9 1
    13    9   10 1
    14    9   11 1
    15   11   12 1
    16   13   14 2
    17   14   15 1
    18   15   16 2
    19   15   20 1
    20   17   18 am
    21   17   19 2
    22   20   21 2
    23   20   23 1
    24   21   22 1
    25   22   25 2
    26   23   24 2
    27   24   25 1
    28   24   29 1
    29   25   26 1
    30   26   27 2
    31   27   28 1
    32   28   29 2
    33    3   30 1
    34    4   31 1
    35    5   32 1
    36    6   33 1
    37    7   34 1
    38    8   35 1
    39    9   36 1
    40   11   37 1
    41   11   38 1
    42   12   39 1
    43   16   40 1
    44   18   41 1
    45   18   42 1
    46   21   43 1
    47   22   44 1
    48   23   45 1
    49   26   46 1
    50   27   47 1
    51   28   48 1
    52   29   49 1
@<TRIPOS>PROPERTY_DATA
  Total_Score	| 9.0434
  Crash		| -2.6600
  Polar		| 6.9187
  FragIndex	| 1
  FragRMSD	| 1.204

