@<TRIPOS>MOLECULE
BindingDB_50261602
 70 74 0 0 0
SMALL
NO_CHARGES


@<TRIPOS>ATOM
1    N         0.7216   65.2424   86.2747  N     
2    C         0.8034   65.4577   84.9281  C     
3    N        -0.0911   64.8413   84.1076  N     
4    C        -0.1916   64.4451   86.8331  C     
5    C        -1.1366   63.8217   86.0170  C     
6    C        -1.0397   64.0366   84.6457  C     
7    C        -2.1389   63.3886   84.0735  C     
8    N        -2.8396   62.8433   85.0693  N     
9    N        -2.2417   63.0845   86.2342  N     
10   C        -2.5550   63.4298   82.6558  C     
11   C        -2.8798   62.0638   81.9472  C     
12   C        -2.8277   62.6464   87.4531  C     
13   O        -0.1749   64.3023   88.0423  O     
14   C         1.8013   66.2917   84.3860  C     
15   C         3.1642   66.1319   84.7526  C     
16   C         4.1444   66.9116   84.1067  C     
17   C         3.7756   67.9123   83.1822  C     
18   C         2.4221   68.1105   82.8556  C     
19   C         1.4424   67.2859   83.4470  C     
20   O         3.4989   65.1618   85.6667  O     
21   C         4.4412   65.4969   86.7047  C     
22   C         4.1849   64.6068   87.9355  C     
23   S         1.9799   69.3810   81.7459  S     
24   N         2.1377   70.9148   82.4557  N     
25   O         2.8891   69.3030   80.4381  O     
26   O         0.5078   69.1351   81.2011  O     
27   C         3.4221   71.5305   82.5677  C     
28   C         3.6393   72.5293   81.4018  C     
29   N         2.4712   73.1863   80.8131  N     
30   C         1.1462   72.8025   81.3060  C     
31   C         1.0441   71.8301   82.5101  C     
32   C        -2.6345   60.7639   82.7451  C     
33   C         2.6192   74.0670   79.7413  C     
34   C         1.4703   74.6167   79.0788  C     
35   C         1.5532   75.4763   77.9720  C     
36   C         2.8030   75.8450   77.4611  C     
37   C         3.9615   75.3492   78.0711  C     
38   C         3.8761   74.4860   79.1800  C     
39   F         5.0451   74.1128   79.6301  F     
40   H         1.3459   65.6950   86.8613  H     
41   H        -3.4492   64.0605   82.6268  H     
42   H        -1.7876   63.9457   82.0693  H     
43   H        -3.9310   62.0752   81.6432  H     
44   H        -2.2851   62.0008   81.0287  H     
45   H        -2.9091   61.5550   87.4590  H     
46   H        -3.8272   63.0787   87.5468  H     
47   H        -2.2431   62.9520   88.3233  H     
48   H         5.1328   66.7820   84.3155  H     
49   H         4.5089   68.4708   82.7479  H     
50   H         0.4602   67.4217   83.2009  H     
51   H         5.4448   65.3030   86.3290  H     
52   H         4.3817   66.5453   87.0272  H     
53   H         3.2503   64.8906   88.4181  H     
54   H         5.0024   64.7154   88.6478  H     
55   H         4.1205   63.5645   87.6305  H     
56   H         3.4745   72.0708   83.5178  H     
57   H         4.2317   70.8000   82.5814  H     
58   H         4.3181   73.2912   81.7889  H     
59   H         4.1435   71.9729   80.6077  H     
60   H         0.5958   73.7047   81.5909  H     
61   H         0.6107   72.3232   80.4803  H     
62   H         0.0774   71.3203   82.5151  H     
63   H         1.0945   72.3993   83.4452  H     
64   H        -2.8841   59.8719   82.1365  H     
65   H        -1.5923   60.6835   83.0376  H     
66   H        -3.2682   60.7402   83.6323  H     
67   H         0.5251   74.3886   79.3839  H     
68   H         0.7010   75.8355   77.5337  H     
69   H         2.8677   76.4678   76.6552  H     
70   H         4.8732   75.6264   77.6931  H     
@<TRIPOS>BOND
     1    1    2 1
     2    1    4 1
     3    2    3 2
     4    2   14 1
     5    3    6 1
     6    4    5 1
     7    4   13 2
     8    5    6 2
     9    5    9 1
    10    6    7 1
    11    7    8 2
    12    7   10 1
    13    8    9 1
    14    9   12 1
    15   10   11 1
    16   11   32 1
    17   14   15 2
    18   14   19 1
    19   15   16 1
    20   15   20 1
    21   16   17 2
    22   17   18 1
    23   18   19 2
    24   18   23 1
    25   20   21 1
    26   21   22 1
    27   23   24 1
    28   23   25 2
    29   23   26 2
    30   24   27 1
    31   24   31 1
    32   27   28 1
    33   28   29 1
    34   29   30 1
    35   29   33 1
    36   30   31 1
    37   33   34 2
    38   33   38 1
    39   34   35 1
    40   35   36 2
    41   36   37 1
    42   37   38 2
    43   38   39 1
    44    1   40 1
    45   10   41 1
    46   10   42 1
    47   11   43 1
    48   11   44 1
    49   12   45 1
    50   12   46 1
    51   12   47 1
    52   16   48 1
    53   17   49 1
    54   19   50 1
    55   21   51 1
    56   21   52 1
    57   22   53 1
    58   22   54 1
    59   22   55 1
    60   27   56 1
    61   27   57 1
    62   28   58 1
    63   28   59 1
    64   30   60 1
    65   30   61 1
    66   31   62 1
    67   31   63 1
    68   32   64 1
    69   32   65 1
    70   32   66 1
    71   34   67 1
    72   35   68 1
    73   36   69 1
    74   37   70 1
@<TRIPOS>PROPERTY_DATA
  Total_Score	| 10.5450
  Crash		| -1.7821
  Polar		| 2.1891
  FragIndex	| 1
  FragRMSD	| 1.091

