@<TRIPOS>MOLECULE
BindingDB_50261647
 70 74 0 0 0
SMALL
NO_CHARGES


@<TRIPOS>ATOM
1    N         0.8073   65.3674   86.1298  N     
2    C         1.2463   65.3215   84.8382  C     
3    N         0.9818   64.2342   84.0580  N     
4    C         0.0918   64.3778   86.6596  C     
5    C        -0.2009   63.2472   85.8868  C     
6    C         0.2670   63.2009   84.5743  C     
7    C        -0.0909   61.9558   84.0644  C     
8    N        -0.7566   61.3181   85.0513  N     
9    N        -0.8308   62.0742   86.1097  N     
10   C         0.2103   61.3333   82.7552  C     
11   C         0.8057   62.2501   81.6454  C     
12   C        -1.4568   61.6796   87.3326  C     
13   O        -0.2514   64.4563   87.8308  O     
14   C         2.1023   66.3109   84.3409  C     
15   C         3.4885   66.2629   84.6436  C     
16   C         4.3486   67.1867   84.0178  C     
17   C         3.8483   68.1392   83.1074  C     
18   C         2.4722   68.1699   82.7905  C     
19   C         1.5998   67.2553   83.4189  C     
20   O         3.9931   65.2561   85.4295  O     
21   C         4.7983   65.6600   86.5567  C     
22   C         5.0614   64.4321   87.4512  C     
23   S         1.8903   69.2721   81.5722  S     
24   N         2.1638   70.9089   81.8778  N     
25   O         2.5781   68.8978   80.1801  O     
26   O         0.3479   69.0209   81.2386  O     
27   C         1.2708   71.6243   82.7581  C     
28   C         1.2534   73.1341   82.3765  C     
29   N         2.5886   73.7084   82.1759  N     
30   C         3.7334   72.8152   82.2205  C     
31   C         3.4117   71.5103   81.4488  C     
32   C         1.2752   61.4716   80.3953  C     
33   C         2.7764   75.0385   81.9572  C     
34   C         2.3581   75.6578   80.7478  C     
35   C         2.6233   77.0062   80.4827  C     
36   C         3.2413   77.8156   81.4633  C     
37   C         3.6473   77.2387   82.6828  C     
38   C         3.4226   75.8752   82.9253  C     
39   Cl        4.3907   78.1948   83.8744  Cl    
40   H         1.0210   66.1376   86.6823  H     
41   H         0.9107   60.5073   82.9357  H     
42   H        -0.7223   60.9092   82.3786  H     
43   H         0.0552   62.9941   81.3422  H     
44   H         1.6735   62.7765   82.0577  H     
45   H        -0.7421   61.7150   88.1537  H     
46   H        -1.8437   60.6654   87.2610  H     
47   H        -2.2793   62.3505   87.5653  H     
48   H         5.3576   67.1504   84.2011  H     
49   H         4.4972   68.7736   82.6437  H     
50   H         0.5998   67.2752   83.1970  H     
51   H         5.7599   66.0572   86.2232  H     
52   H         4.2917   66.4273   87.1511  H     
53   H         4.1223   64.0680   87.8795  H     
54   H         5.7365   64.6912   88.2628  H     
55   H         5.5135   63.6351   86.8573  H     
56   H         0.2499   71.2296   82.7233  H     
57   H         1.6369   71.5149   83.7795  H     
58   H         0.6471   73.2316   81.4671  H     
59   H         0.7440   73.6744   83.1831  H     
60   H         4.6297   73.2559   81.7699  H     
61   H         3.9635   72.5701   83.2636  H     
62   H         4.2431   70.8194   81.5792  H     
63   H         3.3361   71.7375   80.3763  H     
64   H         2.1607   60.8765   80.6339  H     
65   H         1.5116   62.1752   79.5937  H     
66   H         0.4876   60.8096   80.0379  H     
67   H         1.9141   75.0944   80.0189  H     
68   H         2.3400   77.4153   79.5943  H     
69   H         3.3968   78.8082   81.2733  H     
70   H         3.7160   75.4752   83.8213  H     
@<TRIPOS>BOND
     1    1    2 1
     2    1    4 1
     3    2    3 2
     4    2   14 1
     5    3    6 1
     6    4    5 1
     7    4   13 2
     8    5    6 2
     9    5    9 1
    10    6    7 1
    11    7    8 2
    12    7   10 1
    13    8    9 1
    14    9   12 1
    15   10   11 1
    16   11   32 1
    17   14   15 2
    18   14   19 1
    19   15   16 1
    20   15   20 1
    21   16   17 2
    22   17   18 1
    23   18   19 2
    24   18   23 1
    25   20   21 1
    26   21   22 1
    27   23   24 1
    28   23   25 2
    29   23   26 2
    30   24   27 1
    31   24   31 1
    32   27   28 1
    33   28   29 1
    34   29   30 1
    35   29   33 1
    36   30   31 1
    37   33   34 2
    38   33   38 1
    39   34   35 1
    40   35   36 2
    41   36   37 1
    42   37   38 2
    43   37   39 1
    44    1   40 1
    45   10   41 1
    46   10   42 1
    47   11   43 1
    48   11   44 1
    49   12   45 1
    50   12   46 1
    51   12   47 1
    52   16   48 1
    53   17   49 1
    54   19   50 1
    55   21   51 1
    56   21   52 1
    57   22   53 1
    58   22   54 1
    59   22   55 1
    60   27   56 1
    61   27   57 1
    62   28   58 1
    63   28   59 1
    64   30   60 1
    65   30   61 1
    66   31   62 1
    67   31   63 1
    68   32   64 1
    69   32   65 1
    70   32   66 1
    71   34   67 1
    72   35   68 1
    73   36   69 1
    74   38   70 1
@<TRIPOS>PROPERTY_DATA
  Total_Score	| 10.0949
  Crash		| -1.0423
  Polar		| 2.8765
  FragIndex	| 1
  FragRMSD	| 0.639

