@<TRIPOS>MOLECULE
BindingDB_50261648
 70 74 0 0 0
SMALL
NO_CHARGES


@<TRIPOS>ATOM
1    N         0.6183   65.3736   86.1576  N     
2    C         1.0213   65.2678   84.8551  C     
3    N         0.5429   64.2518   84.0766  N     
4    C        -0.2634   64.5338   86.7021  C     
5    C        -0.7775   63.4896   85.9394  C     
6    C        -0.3381   63.3662   84.6255  C     
7    C        -0.9382   62.2175   84.1233  C     
8    N        -1.7168   61.7263   85.1010  N     
9    N        -1.6334   62.4745   86.1634  N     
10   C        -0.7766   61.5819   82.7963  C     
11   C         0.6122   60.9224   82.5741  C     
12   C        -2.3292   62.1876   87.3760  C     
13   O        -0.5860   64.6962   87.8704  O     
14   C         1.9471   66.1803   84.3093  C     
15   C         3.3222   66.1160   84.6327  C     
16   C         4.2296   66.9737   83.9812  C     
17   C         3.7752   67.9164   83.0479  C     
18   C         2.4056   67.9982   82.7263  C     
19   C         1.4973   67.1290   83.3589  C     
20   O         3.8217   65.1420   85.4546  O     
21   C         4.3988   65.5913   86.6963  C     
22   C         5.7175   64.8426   86.9223  C     
23   S         1.8801   69.1410   81.5182  S     
24   N         2.3649   70.7275   81.8476  N     
25   O         2.4648   68.6713   80.1160  O     
26   O         0.3070   69.0944   81.2939  O     
27   C         2.0452   71.2652   83.1491  C     
28   C         2.6667   72.6679   83.3831  C     
29   N         2.5281   73.4969   82.1996  N     
30   C         3.0752   72.9174   80.9731  C     
31   C         3.3497   71.3841   81.0261  C     
32   C         1.6267   61.8045   81.8120  C     
33   C         1.9213   74.7364   82.1966  C     
34   C         0.6314   74.9596   82.7620  C     
35   C         0.0035   76.2182   82.7343  C     
36   C         0.6487   77.3168   82.1382  C     
37   C         1.9193   77.1375   81.5660  C     
38   C         2.5327   75.8718   81.5899  C     
39   Cl       -0.1065   78.8280   82.0939  Cl    
40   H         0.9658   66.1003   86.6999  H     
41   H        -1.5324   60.7964   82.7057  H     
42   H        -0.9824   62.3202   82.0178  H     
43   H         1.0571   60.6398   83.5331  H     
44   H         0.4703   60.0082   81.9937  H     
45   H        -1.6026   62.0476   88.1783  H     
46   H        -2.9239   61.2762   87.2818  H     
47   H        -2.9980   63.0128   87.6328  H     
48   H         5.2308   66.8993   84.1692  H     
49   H         4.4569   68.5283   82.5887  H     
50   H         0.4997   67.1849   83.1266  H     
51   H         4.6099   66.6677   86.7153  H     
52   H         3.7047   65.3650   87.5130  H     
53   H         5.5401   63.7660   86.9730  H     
54   H         6.1831   65.1689   87.8547  H     
55   H         6.4004   65.0462   86.1000  H     
56   H         0.9587   71.3403   83.2502  H     
57   H         2.4140   70.5963   83.9300  H     
58   H         2.2625   73.0855   84.3011  H     
59   H         3.7367   72.5418   83.5737  H     
60   H         2.3517   73.0712   80.1677  H     
61   H         4.0032   73.4294   80.7035  H     
62   H         4.3353   71.2068   81.4649  H     
63   H         3.3716   70.9952   80.0030  H     
64   H         1.1882   62.1529   80.8739  H     
65   H         2.5247   61.2202   81.5745  H     
66   H         1.9163   62.6729   82.4151  H     
67   H         0.0848   74.1916   83.1488  H     
68   H        -0.9303   76.3271   83.1356  H     
69   H         2.4017   77.9280   81.1310  H     
70   H         3.4643   75.8027   81.1740  H     
@<TRIPOS>BOND
     1    1    2 1
     2    1    4 1
     3    2    3 2
     4    2   14 1
     5    3    6 1
     6    4    5 1
     7    4   13 2
     8    5    6 2
     9    5    9 1
    10    6    7 1
    11    7    8 2
    12    7   10 1
    13    8    9 1
    14    9   12 1
    15   10   11 1
    16   11   32 1
    17   14   15 2
    18   14   19 1
    19   15   16 1
    20   15   20 1
    21   16   17 2
    22   17   18 1
    23   18   19 2
    24   18   23 1
    25   20   21 1
    26   21   22 1
    27   23   24 1
    28   23   25 2
    29   23   26 2
    30   24   27 1
    31   24   31 1
    32   27   28 1
    33   28   29 1
    34   29   30 1
    35   29   33 1
    36   30   31 1
    37   33   34 2
    38   33   38 1
    39   34   35 1
    40   35   36 2
    41   36   37 1
    42   36   39 1
    43   37   38 2
    44    1   40 1
    45   10   41 1
    46   10   42 1
    47   11   43 1
    48   11   44 1
    49   12   45 1
    50   12   46 1
    51   12   47 1
    52   16   48 1
    53   17   49 1
    54   19   50 1
    55   21   51 1
    56   21   52 1
    57   22   53 1
    58   22   54 1
    59   22   55 1
    60   27   56 1
    61   27   57 1
    62   28   58 1
    63   28   59 1
    64   30   60 1
    65   30   61 1
    66   31   62 1
    67   31   63 1
    68   32   64 1
    69   32   65 1
    70   32   66 1
    71   34   67 1
    72   35   68 1
    73   37   69 1
    74   38   70 1
@<TRIPOS>PROPERTY_DATA
  Total_Score	| 10.5357
  Crash		| -1.7160
  Polar		| 2.9837
  FragIndex	| 1
  FragRMSD	| 0.734

