@<TRIPOS>MOLECULE
BindingDB_50261652
 77 81 0 0 0
SMALL
NO_CHARGES


@<TRIPOS>ATOM
1    N         0.7358   65.4084   86.0876  N     
2    C         1.2815   65.3069   84.8376  C     
3    N         0.9757   64.2564   84.0410  N     
4    C        -0.1110   64.4882   86.5566  C     
5    C        -0.4547   63.3990   85.7595  C     
6    C         0.1167   63.2977   84.4951  C     
7    C        -0.3184   62.0947   83.9571  C     
8    N        -1.1303   61.5420   84.8788  N     
9    N        -1.2343   62.3074   85.9281  N     
10   C         0.0538   61.4043   82.6997  C     
11   C         0.7247   62.2678   81.5983  C     
12   C        -2.0391   62.0011   87.0621  C     
13   O        -0.5066   64.5965   87.7050  O     
14   C         2.1833   66.2707   84.3579  C     
15   C         3.5705   66.1445   84.6113  C     
16   C         4.4664   67.0293   83.9764  C     
17   C         3.9891   68.0660   83.1607  C     
18   C         2.6061   68.2104   82.9294  C     
19   C         1.7013   67.3051   83.5278  C     
20   O         4.0350   65.1456   85.4336  O     
21   C         4.8069   65.6044   86.5638  C     
22   C         5.0737   64.4298   87.5156  C     
23   S         2.0622   69.4994   81.9053  S     
24   N         2.7382   70.9649   82.4304  N     
25   O         2.5048   69.1669   80.4106  O     
26   O         0.4739   69.5802   81.8313  O     
27   C         1.9800   71.8017   83.3200  C     
28   C         1.2457   72.8845   82.4883  C     
29   N         2.1865   73.6180   81.5868  N     
30   C         3.0123   72.6590   80.7558  C     
31   C         3.7412   71.6322   81.6494  C     
32   C         1.2418   61.4272   80.4095  C     
33   C         1.6642   74.8073   80.8001  C     
34   C         1.0500   74.6031   79.3712  C     
35   C        -0.4308   74.1488   79.3734  C     
36   C        -1.3193   75.1565   80.1476  C     
37   C        -0.7939   75.4278   81.5783  C     
38   C         0.7289   75.7690   81.6201  C     
39   H         0.9825   66.1554   86.6519  H     
40   H         0.7289   60.5872   82.9636  H     
41   H        -0.8552   60.9619   82.2792  H     
42   H         0.0038   63.0025   81.2274  H     
43   H         1.5808   62.7992   82.0199  H     
44   H        -1.4084   61.9225   87.9463  H     
45   H        -2.5657   61.0561   86.9255  H     
46   H        -2.7784   62.7879   87.2159  H     
47   H         5.4745   66.9318   84.1113  H     
48   H         4.6614   68.7044   82.7217  H     
49   H         0.6989   67.3942   83.3537  H     
50   H         5.7716   65.9946   86.2259  H     
51   H         4.2872   66.3902   87.1173  H     
52   H         4.1341   64.0584   87.9281  H     
53   H         5.7155   64.7554   88.3378  H     
54   H         5.5744   63.6221   86.9786  H     
55   H         1.2681   71.2312   83.9193  H     
56   H         2.6633   72.3002   84.0174  H     
57   H         0.4437   72.4150   81.9208  H     
58   H         0.8135   73.5611   83.2232  H     
59   H         2.8623   74.0359   82.2331  H     
60   H         2.3845   72.0725   80.0847  H     
61   H         3.7564   73.1988   80.1656  H     
62   H         4.4509   72.1458   82.3096  H     
63   H         4.3156   70.9347   81.0287  H     
64   H         2.0653   60.7854   80.7338  H     
65   H         1.6086   62.0835   79.6161  H     
66   H         0.4393   60.8061   80.0054  H     
67   H         2.5740   75.4006   80.6353  H     
68   H         1.1001   75.5664   78.8477  H     
69   H         1.6282   73.9184   78.7605  H     
70   H        -0.7704   74.0858   78.3346  H     
71   H        -0.5166   73.1504   79.8092  H     
72   H        -1.3509   76.0984   79.5951  H     
73   H        -2.3365   74.7608   80.2024  H     
74   H        -1.3480   76.2703   81.9972  H     
75   H        -1.0311   74.5649   82.2011  H     
76   H         1.0603   75.8067   82.6631  H     
77   H         0.8391   76.7793   81.2128  H     
@<TRIPOS>BOND
     1    1    2 1
     2    1    4 1
     3    2    3 2
     4    2   14 1
     5    3    6 1
     6    4    5 1
     7    4   13 2
     8    5    6 2
     9    5    9 1
    10    6    7 1
    11    7    8 2
    12    7   10 1
    13    8    9 1
    14    9   12 1
    15   10   11 1
    16   11   32 1
    17   14   15 2
    18   14   19 1
    19   15   16 1
    20   15   20 1
    21   16   17 2
    22   17   18 1
    23   18   19 2
    24   18   23 1
    25   20   21 1
    26   21   22 1
    27   23   24 1
    28   23   25 2
    29   23   26 2
    30   24   27 1
    31   24   31 1
    32   27   28 1
    33   28   29 1
    34   29   30 1
    35   29   33 1
    36   30   31 1
    37   33   34 1
    38   33   38 1
    39   34   35 1
    40   35   36 1
    41   36   37 1
    42   37   38 1
    43    1   39 1
    44   10   40 1
    45   10   41 1
    46   11   42 1
    47   11   43 1
    48   12   44 1
    49   12   45 1
    50   12   46 1
    51   16   47 1
    52   17   48 1
    53   19   49 1
    54   21   50 1
    55   21   51 1
    56   22   52 1
    57   22   53 1
    58   22   54 1
    59   27   55 1
    60   27   56 1
    61   28   57 1
    62   28   58 1
    63   29   59 1
    64   30   60 1
    65   30   61 1
    66   31   62 1
    67   31   63 1
    68   32   64 1
    69   32   65 1
    70   32   66 1
    71   33   67 1
    72   34   68 1
    73   34   69 1
    74   35   70 1
    75   35   71 1
    76   36   72 1
    77   36   73 1
    78   37   74 1
    79   37   75 1
    80   38   76 1
    81   38   77 1
@<TRIPOS>PROPERTY_DATA
  Total_Score	| 11.1156
  Crash		| -1.5845
  Polar		| 2.8827
  FragIndex	| 1
  FragRMSD	| 0.963

