@<TRIPOS>MOLECULE
BindingDB_50261603
 70 74 0 0 0
SMALL
NO_CHARGES


@<TRIPOS>ATOM
1    N         0.7501   65.4098   86.1185  N     
2    C         1.3321   65.3022   84.8878  C     
3    N         1.0445   64.2434   84.0964  N     
4    C        -0.1106   64.4960   86.5711  C     
5    C        -0.4435   63.4055   85.7714  C     
6    C         0.1691   63.2911   84.5312  C     
7    C        -0.2841   62.1007   83.9741  C     
8    N        -1.1403   61.5654   84.8669  N     
9    N        -1.2510   62.3344   85.9130  N     
10   C         0.1273   61.4121   82.7264  C     
11   C         0.6767   62.3065   81.5827  C     
12   C        -2.0998   62.0601   87.0273  C     
13   O        -0.5575   64.6241   87.7020  O     
14   C         2.2175   66.2790   84.4079  C     
15   C         3.6057   66.1989   84.6807  C     
16   C         4.4815   67.1122   84.0500  C     
17   C         3.9839   68.1086   83.1977  C     
18   C         2.6033   68.1956   82.9413  C     
19   C         1.7204   67.2815   83.5514  C     
20   O         4.0845   65.1939   85.4837  O     
21   C         4.8093   65.6353   86.6516  C     
22   C         5.1149   64.4266   87.5499  C     
23   S         2.0188   69.4113   81.8526  S     
24   N         2.7704   70.9009   82.1599  N     
25   O         2.3226   68.8834   80.3784  O     
26   O         0.4368   69.5641   81.8767  O     
27   C         3.5651   71.5664   81.1622  C     
28   C         3.2079   73.0837   81.0626  C     
29   N         1.7671   73.2692   81.3090  N     
30   C         1.3400   72.7636   82.6274  C     
31   C         2.2877   71.7010   83.2564  C     
32   C         1.2374   61.4781   80.4044  C     
33   C         0.8659   73.7724   80.3688  C     
34   C         1.2658   74.2520   79.0847  C     
35   C         0.3520   74.6402   78.0889  C     
36   C        -1.0224   74.5835   78.3342  C     
37   C        -1.4741   74.1823   79.6001  C     
38   C        -0.5517   73.8119   80.5922  C     
39   F        -1.8785   74.9025   77.3979  F     
40   H         0.9728   66.1629   86.6865  H     
41   H         0.8860   60.6709   82.9953  H     
42   H        -0.7432   60.8727   82.3424  H     
43   H        -0.1151   62.9662   81.2163  H     
44   H         1.4901   62.9252   81.9635  H     
45   H        -1.5057   61.9949   87.9403  H     
46   H        -2.6349   61.1151   86.8946  H     
47   H        -2.8353   62.8609   87.1359  H     
48   H         5.4908   67.0436   84.2033  H     
49   H         4.6430   68.7573   82.7526  H     
50   H         0.7172   67.3399   83.3574  H     
51   H         5.7567   66.0958   86.3544  H     
52   H         4.2331   66.3626   87.2304  H     
53   H         4.1862   63.9875   87.9212  H     
54   H         5.7199   64.7401   88.4032  H     
55   H         5.6657   63.6739   86.9842  H     
56   H         4.6228   71.4543   81.4176  H     
57   H         3.4205   71.1237   80.1752  H     
58   H         3.7579   73.6357   81.8303  H     
59   H         3.6193   73.4361   80.1266  H     
60   H         1.2023   73.6045   83.3139  H     
61   H         0.4091   72.2115   82.5721  H     
62   H         1.7655   71.1094   84.0155  H     
63   H         3.1240   72.2026   83.7523  H     
64   H         2.0988   60.8941   80.7343  H     
65   H         1.5579   62.1404   79.5987  H     
66   H         0.4773   60.7989   80.0146  H     
67   H         2.2331   74.3333   78.8001  H     
68   H         0.6995   74.9470   77.1752  H     
69   H        -2.4748   74.1602   79.8026  H     
70   H        -0.9842   73.5697   81.4765  H     
@<TRIPOS>BOND
     1    1    2 1
     2    1    4 1
     3    2    3 2
     4    2   14 1
     5    3    6 1
     6    4    5 1
     7    4   13 2
     8    5    6 2
     9    5    9 1
    10    6    7 1
    11    7    8 2
    12    7   10 1
    13    8    9 1
    14    9   12 1
    15   10   11 1
    16   11   32 1
    17   14   15 2
    18   14   19 1
    19   15   16 1
    20   15   20 1
    21   16   17 2
    22   17   18 1
    23   18   19 2
    24   18   23 1
    25   20   21 1
    26   21   22 1
    27   23   24 1
    28   23   25 2
    29   23   26 2
    30   24   27 1
    31   24   31 1
    32   27   28 1
    33   28   29 1
    34   29   30 1
    35   29   33 1
    36   30   31 1
    37   33   34 2
    38   33   38 1
    39   34   35 1
    40   35   36 2
    41   36   37 1
    42   36   39 1
    43   37   38 2
    44    1   40 1
    45   10   41 1
    46   10   42 1
    47   11   43 1
    48   11   44 1
    49   12   45 1
    50   12   46 1
    51   12   47 1
    52   16   48 1
    53   17   49 1
    54   19   50 1
    55   21   51 1
    56   21   52 1
    57   22   53 1
    58   22   54 1
    59   22   55 1
    60   27   56 1
    61   27   57 1
    62   28   58 1
    63   28   59 1
    64   30   60 1
    65   30   61 1
    66   31   62 1
    67   31   63 1
    68   32   64 1
    69   32   65 1
    70   32   66 1
    71   34   67 1
    72   35   68 1
    73   37   69 1
    74   38   70 1
@<TRIPOS>PROPERTY_DATA
  Total_Score	| 10.8543
  Crash		| -1.4385
  Polar		| 2.8261
  FragIndex	| 1
  FragRMSD	| 1.088

