@<TRIPOS>MOLECULE
BindingDB_50261158
 107 112 0 0 0
SMALL
NO_CHARGES


@<TRIPOS>ATOM
1    N         0.7657   65.2692   86.1149  N     
2    C         0.8113   65.4770   84.7628  C     
3    N        -0.1042   64.8425   83.9735  N     
4    C        -0.1260   64.4613   86.6935  C     
5    C        -1.0511   63.7820   85.9034  C     
6    C        -1.0156   63.9998   84.5322  C     
7    C        -2.0151   63.2063   83.9841  C     
8    N        -2.6085   62.5615   85.0067  N     
9    N        -2.0436   62.8928   86.1334  N     
10   C        -2.3823   63.0869   82.5576  C     
11   C        -1.2863   62.3809   81.7146  C     
12   C        -2.4320   62.3539   87.3952  C     
13   O        -0.1049   64.3373   87.9091  O     
14   C         1.7915   66.3173   84.1687  C     
15   C         3.1629   66.2496   84.5417  C     
16   C         4.1040   67.0227   83.8201  C     
17   C         3.6941   67.9236   82.8329  C     
18   C         2.3330   68.0544   82.5021  C     
19   C         1.3981   67.2212   83.1532  C     
20   O         3.5604   65.3690   85.5275  O     
21   C         4.5195   65.8299   86.5053  C     
22   C         4.5449   64.8654   87.7037  C     
23   S         1.8466   69.2627   81.3376  S     
24   N         2.0013   70.8589   81.8624  N     
25   O         2.6165   69.1167   79.9549  O     
26   O         0.3012   69.0852   81.0023  O     
27   C         3.0253   71.2592   82.7715  C     
28   C        -1.5537   62.4672   80.1944  C     
29   C         3.1579   72.7872   83.0375  C     
30   N         2.9617   73.6819   81.9155  N     
31   C         1.6426   73.9712   81.3881  C     
32   C         0.4467   73.9206   82.3800  C     
33   O        -0.7838   74.2190   81.7310  O     
34   S         4.2977   74.2840   81.0481  S     
35   C         4.9001   73.4824   79.6109  C     
36   O         4.0377   75.8260   80.7410  O     
37   O         5.5441   74.4479   82.0238  O     
38   C         5.2417   74.2138   78.4502  C     
39   C         5.7384   73.5732   77.2871  C     
40   C         5.8765   72.1596   77.2865  C     
41   C         5.5916   71.4350   78.4669  C     
42   C         5.1078   72.0878   79.6149  C     
43   O         6.3991   71.5135   76.1865  O     
44   C         5.6247   70.4460   75.6006  C     
45   C         5.3617   70.7273   74.1110  C     
46   C         6.1400   74.3501   76.1732  C     
47   N         5.6278   74.1038   74.9359  N     
48   C         7.4992   76.0848   75.2954  C     
49   N         7.0637   75.3479   76.3214  N     
50   O         8.3515   76.9349   75.4967  O     
51   C         6.9834   75.8661   74.0226  C     
52   C         6.0297   74.8655   73.8771  C     
53   C         5.6671   74.8745   72.5372  C     
54   N         6.4099   75.8250   71.9356  N     
55   N         7.1871   76.4104   72.8036  N     
56   C         4.6924   73.9884   71.8735  C     
57   C         3.2518   74.1446   72.4345  C     
58   C         2.3109   72.9966   72.0003  C     
59   C         8.0992   77.4566   72.4655  C     
60   H         1.4011   65.7372   86.6803  H     
61   H        -3.3096   62.5145   82.4722  H     
62   H        -2.5710   64.0909   82.1697  H     
63   H        -0.3102   62.8324   81.9117  H     
64   H        -1.2347   61.3269   82.0020  H     
65   H        -1.5874   61.8262   87.8418  H     
66   H        -3.2611   61.6496   87.2898  H     
67   H        -2.7465   63.1567   88.0633  H     
68   H         5.1034   66.9316   84.0099  H     
69   H         4.3987   68.4958   82.3612  H     
70   H         0.4107   67.2939   82.9029  H     
71   H         5.5138   65.8495   86.0585  H     
72   H         4.2764   66.8340   86.8668  H     
73   H         3.5716   64.8447   88.1975  H     
74   H         5.2984   65.1956   88.4229  H     
75   H         4.7975   63.8580   87.3698  H     
76   H         1.2126   71.4159   81.7838  H     
77   H         2.8184   70.7713   83.7305  H     
78   H         3.9793   70.8839   82.4162  H     
79   H        -2.5269   62.0371   79.9490  H     
80   H        -0.7813   61.9175   79.6513  H     
81   H        -1.5312   63.5100   79.8695  H     
82   H         2.4646   73.0593   83.8424  H     
83   H         4.1451   72.9398   83.4730  H     
84   H         1.6236   74.9814   80.9738  H     
85   H         1.4562   73.2813   80.5631  H     
86   H         0.3517   72.9327   82.8307  H     
87   H         0.5990   74.6464   83.1774  H     
88   H        -0.6678   75.1229   81.3705  H     
89   H         5.1269   75.2320   78.4502  H     
90   H         5.7417   70.4234   78.4981  H     
91   H         4.9171   71.5417   80.4452  H     
92   H         6.2118   69.5324   75.6872  H     
93   H         4.6610   70.2824   76.0920  H     
94   H         4.7188   71.6006   74.0178  H     
95   H         4.8597   69.8723   73.6532  H     
96   H         6.2982   70.9118   73.5782  H     
97   H         7.4366   75.5141   77.2025  H     
98   H         4.6752   74.2036   70.8026  H     
99   H         5.0353   72.9611   71.9984  H     
100  H         3.2631   74.1621   73.5264  H     
101  H         2.8297   75.0937   72.0884  H     
102  H         2.2557   72.9341   70.9101  H     
103  H         1.3048   73.1718   72.3940  H     
104  H         2.6751   72.0436   72.3939  H     
105  H         7.8602   78.3532   73.0364  H     
106  H         8.0411   77.6990   71.4036  H     
107  H         9.1217   77.1525   72.6917  H     
@<TRIPOS>BOND
     1    1    2 1
     2    1    4 1
     3    2    3 2
     4    2   14 1
     5    3    6 1
     6    4    5 1
     7    4   13 2
     8    5    6 2
     9    5    9 1
    10    6    7 1
    11    7    8 2
    12    7   10 1
    13    8    9 1
    14    9   12 1
    15   10   11 1
    16   11   28 1
    17   14   15 2
    18   14   19 1
    19   15   16 1
    20   15   20 1
    21   16   17 2
    22   17   18 1
    23   18   19 2
    24   18   23 1
    25   20   21 1
    26   21   22 1
    27   23   24 1
    28   23   25 2
    29   23   26 2
    30   24   27 1
    31   27   29 1
    32   29   30 1
    33   30   31 1
    34   30   34 1
    35   31   32 1
    36   32   33 1
    37   34   35 1
    38   34   36 2
    39   34   37 2
    40   35   38 2
    41   35   42 1
    42   38   39 1
    43   39   40 2
    44   39   46 1
    45   40   41 1
    46   40   43 1
    47   41   42 2
    48   43   44 1
    49   44   45 1
    50   46   47 2
    51   46   49 1
    52   47   52 1
    53   48   49 1
    54   48   50 2
    55   48   51 1
    56   51   52 2
    57   51   55 1
    58   52   53 1
    59   53   54 2
    60   53   56 1
    61   54   55 1
    62   55   59 1
    63   56   57 1
    64   57   58 1
    65    1   60 1
    66   10   61 1
    67   10   62 1
    68   11   63 1
    69   11   64 1
    70   12   65 1
    71   12   66 1
    72   12   67 1
    73   16   68 1
    74   17   69 1
    75   19   70 1
    76   21   71 1
    77   21   72 1
    78   22   73 1
    79   22   74 1
    80   22   75 1
    81   24   76 1
    82   27   77 1
    83   27   78 1
    84   28   79 1
    85   28   80 1
    86   28   81 1
    87   29   82 1
    88   29   83 1
    89   31   84 1
    90   31   85 1
    91   32   86 1
    92   32   87 1
    93   33   88 1
    94   38   89 1
    95   41   90 1
    96   42   91 1
    97   44   92 1
    98   44   93 1
    99   45   94 1
   100   45   95 1
   101   45   96 1
   102   49   97 1
   103   56   98 1
   104   56   99 1
   105   57  100 1
   106   57  101 1
   107   58  102 1
   108   58  103 1
   109   58  104 1
   110   59  105 1
   111   59  106 1
   112   59  107 1
@<TRIPOS>PROPERTY_DATA
  Total_Score	| 8.4086
  Crash		| -2.1096
  Polar		| 2.1802
  FragIndex	| 1
  FragRMSD	| 0.723

