@<TRIPOS>MOLECULE
BindingDB_50261574
 74 78 0 0 0
SMALL
NO_CHARGES


@<TRIPOS>ATOM
1    N         0.8158   65.3348   86.1122  N     
2    C         1.3050   65.2470   84.8337  C     
3    N         1.0339   64.1586   84.0612  N     
4    C         0.0727   64.3627   86.6473  C     
5    C        -0.2087   63.2214   85.8954  C     
6    C         0.2779   63.1601   84.5895  C     
7    C        -0.0932   61.9227   84.0834  C     
8    N        -0.7722   61.2979   85.0668  N     
9    N        -0.8479   62.0518   86.1219  N     
10   C         0.1948   61.2981   82.7707  C     
11   C         0.7566   62.2531   81.6776  C     
12   C        -1.4862   61.6493   87.3351  C     
13   O        -0.2961   64.4787   87.8055  O     
14   C         2.1553   66.2438   84.3209  C     
15   C         3.5522   66.2127   84.5740  C     
16   C         4.3829   67.1709   83.9657  C     
17   C         3.8475   68.1379   83.0972  C     
18   C         2.4700   68.1400   82.7950  C     
19   C         1.6253   67.2089   83.4327  C     
20   O         4.1855   65.2018   85.2581  O     
21   C         4.2272   65.3233   86.6942  C     
22   C         5.4919   64.6177   87.2269  C     
23   S         1.8608   69.2217   81.5689  S     
24   N         2.1430   70.8684   81.8426  N     
25   O         2.5024   68.8441   80.1591  O     
26   O         0.3183   68.9707   81.2575  O     
27   C         3.3655   71.4669   81.3684  C     
28   C         3.7148   72.7585   82.1545  C     
29   N         2.5778   73.6552   82.1728  N     
30   C         1.2529   73.0989   82.3896  C     
31   C         1.2482   71.5807   82.7145  C     
32   C         1.2262   61.5119   80.3972  C     
33   C         2.7629   75.0108   82.1103  C     
34   C         3.6313   75.6475   83.0425  C     
35   C         3.7864   77.0403   83.0647  C     
36   C         3.0809   77.8407   82.1480  C     
37   C         2.2416   77.2395   81.1982  C     
38   C         2.0954   75.8398   81.1600  C     
39   O         1.3603   75.3132   80.1291  O     
40   C         2.1779   74.6752   79.1184  C     
41   H         1.0220   66.1275   86.6553  H     
42   H         0.9131   60.4869   82.9263  H     
43   H        -0.7337   60.8639   82.3963  H     
44   H        -0.0137   62.9794   81.3900  H     
45   H         1.6114   62.8004   82.0909  H     
46   H        -0.7644   61.6405   88.1536  H     
47   H        -1.9074   60.6451   87.2405  H     
48   H        -2.2961   62.3368   87.5828  H     
49   H         5.3951   67.1405   84.1278  H     
50   H         4.4871   68.8052   82.6592  H     
51   H         0.6190   67.2210   83.2227  H     
52   H         4.2460   66.3604   87.0440  H     
53   H         3.3455   64.8216   87.1033  H     
54   H         5.5430   63.5908   86.8528  H     
55   H         5.4696   64.5941   88.3221  H     
56   H         6.3911   65.1541   86.9083  H     
57   H         4.2092   70.7684   81.4624  H     
58   H         3.2390   71.7192   80.3102  H     
59   H         3.9871   72.4951   83.1840  H     
60   H         4.5947   73.2097   81.6825  H     
61   H         0.7720   73.6238   83.2209  H     
62   H         0.6380   73.2376   81.5027  H     
63   H         0.2188   71.2200   82.6397  H     
64   H         1.5828   71.4345   83.7475  H     
65   H         2.0922   60.8765   80.6193  H     
66   H         1.5217   62.2383   79.6285  H     
67   H         0.4188   60.8900   79.9933  H     
68   H         4.1259   75.1003   83.7560  H     
69   H         4.4012   77.4816   83.7497  H     
70   H         3.1877   78.8550   82.1592  H     
71   H         1.7552   77.8145   80.5085  H     
72   H         2.8878   75.3842   78.6721  H     
73   H         1.5261   74.2888   78.3274  H     
74   H         2.7323   73.8268   79.5345  H     
@<TRIPOS>BOND
     1    1    2 1
     2    1    4 1
     3    2    3 2
     4    2   14 1
     5    3    6 1
     6    4    5 1
     7    4   13 2
     8    5    6 2
     9    5    9 1
    10    6    7 1
    11    7    8 2
    12    7   10 1
    13    8    9 1
    14    9   12 1
    15   10   11 1
    16   11   32 1
    17   14   15 2
    18   14   19 1
    19   15   16 1
    20   15   20 1
    21   16   17 2
    22   17   18 1
    23   18   19 2
    24   18   23 1
    25   20   21 1
    26   21   22 1
    27   23   24 1
    28   23   25 2
    29   23   26 2
    30   24   27 1
    31   24   31 1
    32   27   28 1
    33   28   29 1
    34   29   30 1
    35   29   33 1
    36   30   31 1
    37   33   34 2
    38   33   38 1
    39   34   35 1
    40   35   36 2
    41   36   37 1
    42   37   38 2
    43   38   39 1
    44   39   40 1
    45    1   41 1
    46   10   42 1
    47   10   43 1
    48   11   44 1
    49   11   45 1
    50   12   46 1
    51   12   47 1
    52   12   48 1
    53   16   49 1
    54   17   50 1
    55   19   51 1
    56   21   52 1
    57   21   53 1
    58   22   54 1
    59   22   55 1
    60   22   56 1
    61   27   57 1
    62   27   58 1
    63   28   59 1
    64   28   60 1
    65   30   61 1
    66   30   62 1
    67   31   63 1
    68   31   64 1
    69   32   65 1
    70   32   66 1
    71   32   67 1
    72   34   68 1
    73   35   69 1
    74   36   70 1
    75   37   71 1
    76   40   72 1
    77   40   73 1
    78   40   74 1
@<TRIPOS>PROPERTY_DATA
  Total_Score	| 10.4765
  Crash		| -1.1961
  Polar		| 2.8183
  FragIndex	| 1
  FragRMSD	| 0.647

