@<TRIPOS>MOLECULE
BindingDB_50155539
 29 30 0 0 0
SMALL
NO_CHARGES


@<TRIPOS>ATOM
1    C        -5.1373    2.3931   14.7855  C     
2    S        -4.6933    6.4991   12.4083  S     
3    S        -5.6121    1.4982   16.1573  S     
4    S        -5.4582    4.0733   14.6071  S     
5    C        -4.5973    3.8962   13.1213  C     
6    N        -4.3363    4.8687   12.2256  N     
7    N        -4.4890    1.8429   13.8295  N     
8    N        -4.1871    2.6390   12.9094  N     
9    C        -0.0613   10.7323   15.1150  C     
10   C        -3.5118    7.4523   13.2651  C     
11   O        -4.9569    7.0872   10.9449  O     
12   O        -6.1268    6.6327   13.0797  O     
13   O        -6.2328    0.0851   15.7755  O     
14   O        -4.3153    1.2226   17.0284  O     
15   N        -0.8093    9.8002   15.4666  N     
16   S         0.9074   11.9603   14.6508  S     
17   N        -6.6662    2.3475   17.1529  N     
18   C        -3.3323    7.2780   14.6534  C     
19   C        -2.7344    8.4205   12.5993  C     
20   C        -1.6485    9.0584   14.7048  C     
21   C        -2.4121    8.0731   15.3634  C     
22   C        -1.8145    9.2158   13.3077  C     
23   H        -3.8861    4.5977   11.4100  H     
24   H        -6.3969    2.5372   18.0673  H     
25   H        -7.3321    2.9166   16.7363  H     
26   H        -3.8806    6.5843   15.1655  H     
27   H        -2.8368    8.5662   11.5932  H     
28   H        -2.3128    7.9377   16.3734  H     
29   H        -1.2719    9.9166   12.7985  H     
@<TRIPOS>BOND
     1    1    3 1
     2    1    4 1
     3    1    7 2
     4    2    6 1
     5    2   10 1
     6    2   11 2
     7    2   12 2
     8    3   13 2
     9    3   14 2
    10    3   17 am
    11    4    5 1
    12    5    6 1
    13    5    8 2
    14    7    8 1
    15    9   15 2
    16    9   16 2
    17   10   18 2
    18   10   19 1
    19   15   20 1
    20   18   21 1
    21   19   22 2
    22   20   21 2
    23   20   22 1
    24    6   23 1
    25   17   24 1
    26   17   25 1
    27   18   26 1
    28   19   27 1
    29   21   28 1
    30   22   29 1
@<TRIPOS>PROPERTY_DATA
  Total_Score	| 4.3938
  Crash		| -0.6716
  Polar		| 3.2509
  FragIndex	| 1
  FragRMSD	| 1.274

