@<TRIPOS>MOLECULE
BindingDB_10870
 29 30 0 0 0
SMALL
NO_CHARGES


@<TRIPOS>ATOM
1    C        -3.4257    7.6125   13.1925  C     
2    C        -3.1224    7.4315   14.5577  C     
3    C        -2.2106    8.2850   15.2069  C     
4    C        -1.5826    9.3246   14.4947  C     
5    C        -1.8729    9.5025   13.1287  C     
6    C        -2.7881    8.6513   12.4815  C     
7    N        -0.7125   10.1413   15.1141  N     
8    O        -6.0086    6.6829   12.9762  O     
9    O        -4.7087    6.8903   10.8635  O     
10   S        -4.5355    6.5270   12.4011  S     
11   N        -4.0001    4.9288   12.4541  N     
12   C        -4.3601    3.9808   13.3437  C     
13   C        -5.0867    2.4666   14.9366  C     
14   S        -5.5848    4.0513   14.5669  S     
15   N        -3.7156    2.8086   13.3488  N     
16   N        -4.1270    2.0149   14.2301  N     
17   S        -5.7721    1.5623   16.2068  S     
18   O        -6.0456    0.0960   15.6583  O     
19   O        -4.7555    1.3815   17.4145  O     
20   N        -7.2570    2.1248   16.7519  N     
21   H        -3.5631    6.6791   15.0926  H     
22   H        -2.0074    8.1420   16.2004  H     
23   H        -1.4224   10.2529   12.5994  H     
24   H        -2.9800    8.7974   11.4881  H     
25   H        -0.2797   10.8566   14.6219  H     
26   H        -0.5193   10.0193   16.0567  H     
27   H        -3.2976    4.6920   11.8287  H     
28   H        -8.0103    1.5127   16.8198  H     
29   H        -7.3576    3.0518   17.0244  H     
@<TRIPOS>BOND
     1    1    2 2
     2    1    6 1
     3    1   10 1
     4    2    3 1
     5    3    4 2
     6    4    5 1
     7    4    7 1
     8    5    6 2
     9    8   10 2
    10    9   10 2
    11   10   11 1
    12   11   12 1
    13   12   14 1
    14   12   15 2
    15   13   14 1
    16   13   16 2
    17   13   17 1
    18   15   16 1
    19   17   18 2
    20   17   19 2
    21   17   20 am
    22    2   21 1
    23    3   22 1
    24    5   23 1
    25    6   24 1
    26    7   25 1
    27    7   26 1
    28   11   27 1
    29   20   28 1
    30   20   29 1
@<TRIPOS>PROPERTY_DATA
  Total_Score	| 4.8620
  Crash		| -0.5100
  Polar		| 3.3980
  FragIndex	| 1
  FragRMSD	| 1.168

