@<TRIPOS>MOLECULE
BindingDB_35738
 34 35 0 0 0
SMALL
NO_CHARGES


@<TRIPOS>ATOM
1    C        18.1782    7.3252   12.4509  C     
2    C        17.3604    6.1615   12.7765  C     
3    O        17.0618    5.4226   11.8487  O     
4    N        16.9844    5.8538   14.0130  N     
5    C        16.5076    4.6577   14.4672  C     
6    C        14.8928    3.5235   15.9216  C     
7    C        15.3556    4.6870   15.2817  C     
8    C        17.1971    3.4264   14.2991  C     
9    C        16.7471    2.2729   14.9673  C     
10   C        15.6067    2.3170   15.7916  C     
11   S        15.1586    0.9158   16.7182  S     
12   O        15.2676   -0.4401   15.9005  O     
13   O        16.2361    0.7934   17.8797  O     
14   N        13.6780    0.9740   17.4973  N     
15   C        18.9981    7.9300   13.5425  C     
16   C        20.0476    9.8794   14.6035  C     
17   C        20.5479    9.0620   15.6319  C     
18   C        20.2858    7.6847   15.6149  C     
19   C        19.5520    7.1161   14.5597  C     
20   C        19.2713    9.3190   13.5721  C     
21   Br       18.7635    3.2449   13.3015  Br    
22   H        18.8828    7.0225   11.6721  H     
23   H        17.5188    8.0760   12.0088  H     
24   H        17.0795    6.5460   14.6840  H     
25   H        14.0667    3.5793   16.5243  H     
26   H        14.8554    5.5647   15.4387  H     
27   H        17.2773    1.4041   14.8728  H     
28   H        13.6396    0.7680   18.4439  H     
29   H        12.8666    0.9529   16.9665  H     
30   H        20.2384   10.8830   14.6114  H     
31   H        21.0986    9.4667   16.3927  H     
32   H        20.6179    7.0961   16.3747  H     
33   H        19.3963    6.1054   14.5588  H     
34   H        18.9100    9.9355   12.8400  H     
@<TRIPOS>BOND
     1    1    2 1
     2    1   15 1
     3    2    3 2
     4    2    4 am
     5    4    5 1
     6    5    7 2
     7    5    8 1
     8    6    7 1
     9    6   10 2
    10    8    9 2
    11    8   21 1
    12    9   10 1
    13   10   11 1
    14   11   12 2
    15   11   13 2
    16   11   14 am
    17   15   19 2
    18   15   20 1
    19   16   17 1
    20   16   20 2
    21   17   18 2
    22   18   19 1
    23    1   22 1
    24    1   23 1
    25    4   24 1
    26    6   25 1
    27    7   26 1
    28    9   27 1
    29   14   28 1
    30   14   29 1
    31   16   30 1
    32   17   31 1
    33   18   32 1
    34   19   33 1
    35   20   34 1
@<TRIPOS>PROPERTY_DATA
  Total_Score	| 5.1465
  Crash		| -1.4009
  Polar		| 3.0123
  FragIndex	| 1
  FragRMSD	| 1.125

