@<TRIPOS>MOLECULE
BindingDB_35727
 31 32 0 0 0
SMALL
NO_CHARGES


@<TRIPOS>ATOM
1    C        18.3701    7.2908   12.5192  C     
2    C        19.0893    8.0978   13.5275  C     
3    C        19.2326    9.4916   13.5461  C     
4    C        20.0103    9.9965   14.6030  C     
5    C        20.5210    9.0165   15.4598  C     
6    S        19.9841    7.4957   14.8718  S     
7    C        17.3663    6.4040   13.1012  C     
8    O        16.1852    6.6171   12.8598  O     
9    N        17.7796    5.3539   13.8079  N     
10   C        17.0948    4.3514   14.4567  C     
11   C        17.2741    2.2342   15.7054  C     
12   C        17.8738    3.3079   15.0175  C     
13   C        15.6858    4.2768   14.6139  C     
14   C        15.0877    3.2070   15.3002  C     
15   C        15.8760    2.1770   15.8444  C     
16   S        15.1402    0.8665   16.7216  S     
17   O        15.2192   -0.4108   15.7796  O     
18   O        15.9427    0.4531   18.0305  O     
19   N        13.4988    1.0213   17.0110  N     
20   F        19.1817    3.3128   14.9353  F     
21   H        17.9018    7.9611   11.7929  H     
22   H        19.0944    6.6914   11.9660  H     
23   H        18.8113   10.0987   12.8419  H     
24   H        20.1951   10.9880   14.7288  H     
25   H        21.1137    9.1716   16.2749  H     
26   H        18.7388    5.2710   13.8601  H     
27   H        17.8611    1.4983   16.1021  H     
28   H        15.0796    5.0170   14.2525  H     
29   H        14.0706    3.1950   15.4005  H     
30   H        12.8823    0.4095   16.5770  H     
31   H        13.1588    1.8540   17.3771  H     
@<TRIPOS>BOND
     1    1    2 1
     2    1    7 1
     3    2    3 2
     4    2    6 1
     5    3    4 1
     6    4    5 2
     7    5    6 1
     8    7    8 2
     9    7    9 am
    10    9   10 1
    11   10   12 2
    12   10   13 1
    13   11   12 1
    14   11   15 2
    15   12   20 1
    16   13   14 2
    17   14   15 1
    18   15   16 1
    19   16   17 2
    20   16   18 2
    21   16   19 am
    22    1   21 1
    23    1   22 1
    24    3   23 1
    25    4   24 1
    26    5   25 1
    27    9   26 1
    28   11   27 1
    29   13   28 1
    30   14   29 1
    31   19   30 1
    32   19   31 1
@<TRIPOS>PROPERTY_DATA
  Total_Score	| 5.2468
  Crash		| -0.9544
  Polar		| 2.5652
  FragIndex	| 1
  FragRMSD	| 0.891

