@<TRIPOS>MOLECULE
BindingDB_11041
 28 28 0 0 0
SMALL
NO_CHARGES


@<TRIPOS>ATOM
1    C        15.2267    2.9731   15.1211  C     
2    C        16.0122    2.0648   15.8613  C     
3    C        17.4162    2.1907   15.8352  C     
4    C        18.0201    3.2242   15.1006  C     
5    C        17.2472    4.1457   14.3670  C     
6    C        15.8377    3.9960   14.3785  C     
7    N        13.6212    0.9353   17.0812  N     
8    S        15.2728    0.8001   16.7992  S     
9    O        15.3794   -0.5022   15.8993  O     
10   O        16.0696    0.4879   18.1387  O     
11   N        17.9423    5.1073   13.6804  N     
12   C        17.5535    6.2847   13.2112  C     
13   O        16.3985    6.6835   13.2997  O     
14   C        18.5238    7.1444   12.5489  C     
15   C        19.8210    7.4627   13.3445  C     
16   S        19.5527    7.9903   15.0552  S     
17   H        14.2082    2.8810   15.1081  H     
18   H        18.0088    1.5302   16.3498  H     
19   H        19.0453    3.3017   15.1113  H     
20   H        15.2329    4.6032   13.8270  H     
21   H        13.0445    0.1769   16.8727  H     
22   H        13.2242    1.8142   17.2169  H     
23   H        18.8892    4.9220   13.5826  H     
24   H        18.8116    6.6565   11.6119  H     
25   H        18.0556    8.0985   12.2742  H     
26   H        20.4898    6.5954   13.3245  H     
27   H        20.3271    8.2843   12.8367  H     
28   H        20.2479    6.9438   15.5976  H     
@<TRIPOS>BOND
     1    1    2 2
     2    1    6 1
     3    2    3 1
     4    2    8 1
     5    3    4 2
     6    4    5 1
     7    5    6 2
     8    5   11 1
     9    7    8 am
    10    8    9 2
    11    8   10 2
    12   11   12 am
    13   12   13 2
    14   12   14 1
    15   14   15 1
    16   15   16 1
    17    1   17 1
    18    3   18 1
    19    4   19 1
    20    6   20 1
    21    7   21 1
    22    7   22 1
    23   11   23 1
    24   14   24 1
    25   14   25 1
    26   15   26 1
    27   15   27 1
    28   16   28 1
@<TRIPOS>PROPERTY_DATA
  Total_Score	| 4.0482
  Crash		| -0.7857
  Polar		| 2.4516
  FragIndex	| 1
  FragRMSD	| 1.043

