@<TRIPOS>MOLECULE
BindingDB_16647
 30 30 0 0 0
SMALL
NO_CHARGES


@<TRIPOS>ATOM
1    C        15.9405    2.1537   15.9059  C     
2    C        15.1100    3.0943   15.2613  C     
3    C        15.6695    4.1613   14.5378  C     
4    C        17.0759    4.3105   14.4454  C     
5    C        17.8964    3.3497   15.0799  C     
6    C        17.3404    2.2802   15.8019  C     
7    S        15.2487    0.8286   16.7911  S     
8    O        15.2486   -0.4226   15.8155  O     
9    O        16.1217    0.4916   18.0742  O     
10   N        13.6569    1.0987   17.2277  N     
11   N        17.7503    5.2993   13.7861  N     
12   C        17.3459    6.3971   13.1514  C     
13   O        16.1627    6.6958   13.0477  O     
14   C        18.3297    7.2585   12.4887  C     
15   C        19.3511    7.8298   13.5053  C     
16   C        19.0440    6.5040   11.3343  C     
17   H        14.0922    3.0080   15.3069  H     
18   H        15.0315    4.8099   14.0822  H     
19   H        18.9152    3.4259   15.0308  H     
20   H        17.9634    1.6018   16.2520  H     
21   H        13.1216    0.3681   17.5634  H     
22   H        13.2990    2.0000   17.2005  H     
23   H        18.7105    5.1699   13.7797  H     
24   H        17.8278    8.1160   12.0253  H     
25   H        18.8458    8.3730   14.3030  H     
26   H        20.0252    8.5255   12.9921  H     
27   H        19.9601    7.0368   13.9485  H     
28   H        19.5666    5.6165   11.7000  H     
29   H        19.7775    7.1558   10.8573  H     
30   H        18.3154    6.1960   10.5820  H     
@<TRIPOS>BOND
     1    1    2 1
     2    1    6 2
     3    1    7 1
     4    2    3 2
     5    3    4 1
     6    4    5 2
     7    4   11 1
     8    5    6 1
     9    7    8 2
    10    7    9 2
    11    7   10 am
    12   11   12 am
    13   12   13 2
    14   12   14 1
    15   14   15 1
    16   14   16 1
    17    2   17 1
    18    3   18 1
    19    5   19 1
    20    6   20 1
    21   10   21 1
    22   10   22 1
    23   11   23 1
    24   14   24 1
    25   15   25 1
    26   15   26 1
    27   15   27 1
    28   16   28 1
    29   16   29 1
    30   16   30 1
@<TRIPOS>PROPERTY_DATA
  Total_Score	| 3.3498
  Crash		| -0.9218
  Polar		| 2.6384
  FragIndex	| 1
  FragRMSD	| 1.006

