@<TRIPOS>MOLECULE
BindingDB_35729
 31 32 0 0 0
SMALL
NO_CHARGES


@<TRIPOS>ATOM
1    C        18.2236    7.4636   12.4721  C     
2    C        19.0561    8.1351   13.4950  C     
3    C        19.3718    9.5009   13.5478  C     
4    C        20.2029    9.8844   14.6154  C     
5    C        20.5911    8.8307   15.4487  C     
6    S        19.8783    7.3971   14.8195  S     
7    C        17.2343    6.5505   13.0357  C     
8    O        16.0478    6.8072   12.8848  O     
9    N        17.6680    5.4601   13.6521  N     
10   C        17.0317    4.4304   14.3001  C     
11   C        17.3307    2.3763   15.6146  C     
12   C        17.8696    3.4631   14.9029  C     
13   C        15.6330    4.2681   14.4281  C     
14   C        15.0879    3.1823   15.1389  C     
15   C        15.9379    2.2332   15.7445  C     
16   S        15.2696    0.9154   16.6708  S     
17   O        15.1663   -0.3772   15.7524  O     
18   O        16.1250    0.5774   17.9699  O     
19   N        13.7268    1.2949   17.2152  N     
20   Br       19.7298    3.5725   14.8230  Br    
21   H        17.7373    8.2294   11.8561  H     
22   H        18.8818    6.8997   11.8090  H     
23   H        19.0214   10.1734   12.8609  H     
24   H        20.5029   10.8503   14.7671  H     
25   H        21.1963    8.8988   16.2672  H     
26   H        18.6303    5.3848   13.6636  H     
27   H        17.9679    1.6973   16.0392  H     
28   H        14.9803    4.9366   14.0147  H     
29   H        14.0717    3.0824   15.2235  H     
30   H        13.2500    0.6367   17.7461  H     
31   H        13.4879    2.2379   17.3140  H     
@<TRIPOS>BOND
     1    1    2 1
     2    1    7 1
     3    2    3 2
     4    2    6 1
     5    3    4 1
     6    4    5 2
     7    5    6 1
     8    7    8 2
     9    7    9 am
    10    9   10 1
    11   10   12 2
    12   10   13 1
    13   11   12 1
    14   11   15 2
    15   12   20 1
    16   13   14 2
    17   14   15 1
    18   15   16 1
    19   16   17 2
    20   16   18 2
    21   16   19 am
    22    1   21 1
    23    1   22 1
    24    3   23 1
    25    4   24 1
    26    5   25 1
    27    9   26 1
    28   11   27 1
    29   13   28 1
    30   14   29 1
    31   19   30 1
    32   19   31 1
@<TRIPOS>PROPERTY_DATA
  Total_Score	| 4.3829
  Crash		| -1.7077
  Polar		| 2.7970
  FragIndex	| 1
  FragRMSD	| 0.933

