@<TRIPOS>MOLECULE
BindingDB_35733
 34 35 0 0 0
SMALL
NO_CHARGES


@<TRIPOS>ATOM
1    C        18.2997    7.3256   12.4839  C     
2    C        17.3029    6.3941   12.9895  C     
3    O        16.1193    6.6538   12.8223  O     
4    N        17.7253    5.3010   13.6120  N     
5    C        17.0614    4.3255   14.3071  C     
6    C        17.3418    2.3384   15.7228  C     
7    C        17.8879    3.3918   14.9699  C     
8    C        15.6579    4.1730   14.4258  C     
9    C        15.1098    3.1266   15.1861  C     
10   C        15.9470    2.2052   15.8476  C     
11   S        15.2617    0.9205   16.8020  S     
12   O        15.1157   -0.3334   15.8387  O     
13   O        16.1758    0.5468   18.0475  O     
14   N        13.7183    1.2784   17.3495  N     
15   C        19.1955    7.9259   13.5187  C     
16   C        19.7200    8.5616   15.8356  C     
17   C        20.9895    9.0091   15.4344  C     
18   C        21.3573    8.9468   14.0804  C     
19   C        20.4661    8.4160   13.1320  C     
20   C        18.8244    8.0385   14.8845  C     
21   H        18.9065    6.7676   11.7661  H     
22   H        17.8191    8.1427   11.9348  H     
23   H        18.6907    5.1961   13.6182  H     
24   H        17.9713    1.6846   16.1932  H     
25   H        18.9057    3.4759   14.9142  H     
26   H        15.0177    4.8155   13.9630  H     
27   H        14.0945    3.0467   15.2653  H     
28   H        13.2044    0.6029   17.8214  H     
29   H        13.3528    2.1647   17.2164  H     
30   H        19.4429    8.6124   16.8195  H     
31   H        21.6371    9.3926   16.1237  H     
32   H        22.2734    9.2911   13.7829  H     
33   H        20.7600    8.3755   12.1500  H     
34   H        17.9078    7.7225   15.2050  H     
@<TRIPOS>BOND
     1    1    2 1
     2    1   15 1
     3    2    3 2
     4    2    4 am
     5    4    5 1
     6    5    7 2
     7    5    8 1
     8    6    7 1
     9    6   10 2
    10    8    9 2
    11    9   10 1
    12   10   11 1
    13   11   12 2
    14   11   13 2
    15   11   14 am
    16   15   19 2
    17   15   20 1
    18   16   17 1
    19   16   20 2
    20   17   18 2
    21   18   19 1
    22    1   21 1
    23    1   22 1
    24    4   23 1
    25    6   24 1
    26    7   25 1
    27    8   26 1
    28    9   27 1
    29   14   28 1
    30   14   29 1
    31   16   30 1
    32   17   31 1
    33   18   32 1
    34   19   33 1
    35   20   34 1
@<TRIPOS>PROPERTY_DATA
  Total_Score	| 5.1505
  Crash		| -1.1989
  Polar		| 2.8553
  FragIndex	| 1
  FragRMSD	| 1.101

