@<TRIPOS>MOLECULE
BindingDB_35739
 33 34 0 0 0
SMALL
NO_CHARGES


@<TRIPOS>ATOM
1    C        18.1404    7.2594   12.5527  C     
2    C        17.1681    6.3339   13.1118  C     
3    O        15.9785    6.5496   12.9186  O     
4    N        17.6220    5.2676   13.7606  N     
5    C        16.9901    4.2491   14.4219  C     
6    C        15.0502    3.0174   15.2925  C     
7    C        15.5882    4.0913   14.5581  C     
8    C        17.8309    3.2998   15.0405  C     
9    C        17.2977    2.2189   15.7684  C     
10   C        15.9007    2.0725   15.8993  C     
11   S        15.2591    0.7380   16.8216  S     
12   O        15.3239   -0.5282   15.8676  O     
13   O        16.1786    0.4486   18.0875  O     
14   N        13.6470    0.8183   17.2886  N     
15   C        18.9621    7.9382   13.5881  C     
16   C        20.0934    9.8947   14.5112  C     
17   C        20.5896    9.1044   15.5628  C     
18   C        20.2532    7.7413   15.6000  C     
19   C        19.2746    9.3170   13.5223  C     
20   N        19.4669    7.2152   14.6262  N     
21   H        18.8102    6.7163   11.8867  H     
22   H        17.6343    8.0065   11.9339  H     
23   H        18.5883    5.2079   13.7891  H     
24   H        14.0347    2.9251   15.3875  H     
25   H        14.9324    4.7429   14.1380  H     
26   H        18.8462    3.3902   14.9715  H     
27   H        17.9387    1.5486   16.2022  H     
28   H        13.1773   -0.0182   17.4639  H     
29   H        13.1267    1.6107   17.0759  H     
30   H        20.3376   10.8873   14.4596  H     
31   H        21.1873    9.5120   16.2865  H     
32   H        20.5783    7.1483   16.3647  H     
33   H        18.9188    9.9014   12.7642  H     
@<TRIPOS>BOND
     1    1    2 1
     2    1   15 1
     3    2    3 2
     4    2    4 am
     5    4    5 1
     6    5    7 2
     7    5    8 1
     8    6    7 1
     9    6   10 2
    10    8    9 2
    11    9   10 1
    12   10   11 1
    13   11   12 2
    14   11   13 2
    15   11   14 am
    16   15   19 1
    17   15   20 2
    18   16   17 1
    19   16   19 2
    20   17   18 2
    21   18   20 1
    22    1   21 1
    23    1   22 1
    24    4   23 1
    25    6   24 1
    26    7   25 1
    27    8   26 1
    28    9   27 1
    29   14   28 1
    30   14   29 1
    31   16   30 1
    32   17   31 1
    33   18   32 1
    34   19   33 1
@<TRIPOS>PROPERTY_DATA
  Total_Score	| 5.3202
  Crash		| -1.1796
  Polar		| 2.5052
  FragIndex	| 1
  FragRMSD	| 0.910

