@<TRIPOS>MOLECULE
BindingDB_35740
 33 34 0 0 0
SMALL
NO_CHARGES


@<TRIPOS>ATOM
1    C        18.4127    7.2413   12.5986  C     
2    C        17.3881    6.3505   13.1271  C     
3    O        16.2092    6.6506   12.9775  O     
4    N        17.7813    5.2266   13.7135  N     
5    C        17.1015    4.2529   14.3837  C     
6    C        17.3463    2.2283   15.7554  C     
7    C        17.9092    3.2825   15.0204  C     
8    C        15.6944    4.1302   14.5100  C     
9    C        15.1294    3.0763   15.2437  C     
10   C        15.9482    2.1199   15.8797  C     
11   S        15.2506    0.8111   16.7859  S     
12   O        15.2075   -0.4382   15.8101  O     
13   O        16.1468    0.4779   18.0543  O     
14   N        13.6748    1.1218   17.2773  N     
15   C        19.1308    8.0208   13.6517  C     
16   C        20.3544    8.1729   15.7668  C     
17   C        20.0445   10.1378   14.4695  C     
18   C        19.6804    7.3985   14.8020  C     
19   C        19.3327    9.4136   13.4969  C     
20   N        20.5211    9.5019   15.5645  N     
21   H        19.1428    6.6559   12.0419  H     
22   H        17.9526    7.9215   11.8801  H     
23   H        18.7419    5.0904   13.6897  H     
24   H        17.9639    1.5480   16.2015  H     
25   H        18.9339    3.3452   14.9564  H     
26   H        15.0671    4.7953   14.0702  H     
27   H        14.1109    3.0094   15.3153  H     
28   H        13.1766    0.4347   17.7496  H     
29   H        13.2821    1.9907   17.1255  H     
30   H        20.7289    7.7384   16.6127  H     
31   H        20.2046   11.1359   14.3533  H     
32   H        19.5966    6.3884   14.9516  H     
33   H        18.9801    9.9030   12.6728  H     
@<TRIPOS>BOND
     1    1    2 1
     2    1   15 1
     3    2    3 2
     4    2    4 am
     5    4    5 1
     6    5    7 2
     7    5    8 1
     8    6    7 1
     9    6   10 2
    10    8    9 2
    11    9   10 1
    12   10   11 1
    13   11   12 2
    14   11   13 2
    15   11   14 am
    16   15   18 1
    17   15   19 2
    18   16   18 2
    19   16   20 1
    20   17   19 1
    21   17   20 2
    22    1   21 1
    23    1   22 1
    24    4   23 1
    25    6   24 1
    26    7   25 1
    27    8   26 1
    28    9   27 1
    29   14   28 1
    30   14   29 1
    31   16   30 1
    32   17   31 1
    33   18   32 1
    34   19   33 1
@<TRIPOS>PROPERTY_DATA
  Total_Score	| 4.5966
  Crash		| -1.4609
  Polar		| 2.6175
  FragIndex	| 1
  FragRMSD	| 0.954

