@<TRIPOS>MOLECULE
BindingDB_16645
 27 27 0 0 0
SMALL
NO_CHARGES


@<TRIPOS>ATOM
1    C        15.9573    2.1665   15.9139  C     
2    C        15.1369    3.1740   15.3675  C     
3    C        15.7072    4.2766   14.7083  C     
4    C        17.1053    4.3932   14.5464  C     
5    C        17.9196    3.3682   15.0967  C     
6    C        17.3561    2.2682   15.7730  C     
7    S        15.2683    0.8145   16.7698  S     
8    O        15.2238   -0.4222   15.7773  O     
9    O        16.1459    0.4567   18.0466  O     
10   N        13.6906    1.0841   17.2750  N     
11   N        17.7908    5.4183   13.9450  N     
12   C        17.3789    6.4393   13.1832  C     
13   O        16.2305    6.5955   12.8157  O     
14   C        18.3700    7.3623   12.6494  C     
15   C        19.2964    7.9677   13.7314  C     
16   H        14.1217    3.1148   15.4596  H     
17   H        15.0654    4.9949   14.3824  H     
18   H        18.9435    3.4198   15.0164  H     
19   H        17.9798    1.5498   16.1608  H     
20   H        13.1422    0.3287   17.5294  H     
21   H        13.2862    1.9599   17.1517  H     
22   H        18.7462    5.3884   14.0791  H     
23   H        18.9831    6.8325   11.9133  H     
24   H        17.8835    8.1981   12.1308  H     
25   H        18.7185    8.3731   14.5632  H     
26   H        19.8920    8.7764   13.2968  H     
27   H        19.9813    7.2050   14.1115  H     
@<TRIPOS>BOND
     1    1    2 1
     2    1    6 2
     3    1    7 1
     4    2    3 2
     5    3    4 1
     6    4    5 2
     7    4   11 1
     8    5    6 1
     9    7    8 2
    10    7    9 2
    11    7   10 am
    12   11   12 am
    13   12   13 2
    14   12   14 1
    15   14   15 1
    16    2   16 1
    17    3   17 1
    18    5   18 1
    19    6   19 1
    20   10   20 1
    21   10   21 1
    22   11   22 1
    23   14   23 1
    24   14   24 1
    25   15   25 1
    26   15   26 1
    27   15   27 1
@<TRIPOS>PROPERTY_DATA
  Total_Score	| 3.6390
  Crash		| -0.8535
  Polar		| 2.6086
  FragIndex	| 1
  FragRMSD	| 1.006

