@<TRIPOS>MOLECULE
BindingDB_16646
 30 30 0 0 0
SMALL
NO_CHARGES


@<TRIPOS>ATOM
1    C        15.9238    2.1307   15.9732  C     
2    C        15.1428    3.1315   15.3616  C     
3    C        15.7595    4.1711   14.6388  C     
4    C        17.1727    4.2459   14.5188  C     
5    C        17.9347    3.2251   15.1313  C     
6    C        17.3228    2.1846   15.8526  C     
7    S        15.2035    0.8194   16.8610  S     
8    O        15.2969   -0.4341   15.8878  O     
9    O        16.0251    0.4502   18.1698  O     
10   N        13.5634    0.9581   17.1809  N     
11   N        17.8973    5.2398   13.9044  N     
12   C        17.5236    6.3420   13.2655  C     
13   O        16.3492    6.6226   13.0570  O     
14   C        18.5413    7.2526   12.7689  C     
15   C        19.6523    7.6209   13.7878  C     
16   C        19.1352    8.0814   15.1706  C     
17   H        14.1210    3.1053   15.4355  H     
18   H        15.1562    4.8700   14.2098  H     
19   H        18.9579    3.2346   15.0629  H     
20   H        17.9123    1.4654   16.2853  H     
21   H        12.9983    0.1685   17.0917  H     
22   H        13.1504    1.8344   17.1984  H     
23   H        18.8521    5.1099   13.9411  H     
24   H        19.0150    6.7959   11.8989  H     
25   H        18.0779    8.1852   12.4238  H     
26   H        20.3111    6.7622   13.9366  H     
27   H        20.2593    8.4318   13.3689  H     
28   H        18.5005    8.9683   15.0687  H     
29   H        19.9824    8.3296   15.8277  H     
30   H        18.5648    7.2728   15.6334  H     
@<TRIPOS>BOND
     1    1    2 1
     2    1    6 2
     3    1    7 1
     4    2    3 2
     5    3    4 1
     6    4    5 2
     7    4   11 1
     8    5    6 1
     9    7    8 2
    10    7    9 2
    11    7   10 am
    12   11   12 am
    13   12   13 2
    14   12   14 1
    15   14   15 1
    16   15   16 1
    17    2   17 1
    18    3   18 1
    19    5   19 1
    20    6   20 1
    21   10   21 1
    22   10   22 1
    23   11   23 1
    24   14   24 1
    25   14   25 1
    26   15   26 1
    27   15   27 1
    28   16   28 1
    29   16   29 1
    30   16   30 1
@<TRIPOS>PROPERTY_DATA
  Total_Score	| 4.2564
  Crash		| -0.8684
  Polar		| 2.4915
  FragIndex	| 1
  FragRMSD	| 1.010

