@<TRIPOS>MOLECULE
BindingDB_35731
 37 38 0 0 0
SMALL
NO_CHARGES


@<TRIPOS>ATOM
1    C        15.2085    8.2685   11.2670  C     
2    C        15.6154    6.9930   11.8244  C     
3    O        14.7394    6.2325   12.2196  O     
4    N        16.8970    6.6416   11.8493  N     
5    C        17.4164    5.4300   12.3966  C     
6    C        14.9013    8.1479    9.8312  C     
7    C        15.8254    8.0832    8.7801  C     
8    C        15.2560    7.9897    7.4975  C     
9    C        13.8610    7.9716    7.4912  C     
10   S        13.3348    8.0772    9.1233  S     
11   C        17.5920    5.5126   13.9440  C     
12   C        17.0353    4.3369   14.6661  C     
13   C        15.0742    3.1565   15.5417  C     
14   C        15.6385    4.2566   14.8776  C     
15   C        17.8545    3.2853   15.1329  C     
16   C        17.2912    2.1766   15.7909  C     
17   C        15.8980    2.1146   16.0066  C     
18   N        13.5747    0.8382   17.1843  N     
19   S        15.2200    0.7605   16.8638  S     
20   O        15.3323   -0.4829   15.8846  O     
21   O        16.0480    0.4206   18.1770  O     
22   H        14.3289    8.6207   11.8086  H     
23   H        15.9876    9.0241   11.3906  H     
24   H        17.5356    7.2450   11.4370  H     
25   H        16.7813    4.5890   12.1052  H     
26   H        18.3964    5.2561   11.9469  H     
27   H        16.8386    8.1087    8.9297  H     
28   H        15.8156    7.9485    6.6438  H     
29   H        13.2580    7.9199    6.6692  H     
30   H        18.6619    5.6193   14.1710  H     
31   H        17.1098    6.4144   14.3360  H     
32   H        14.0624    3.1266   15.6834  H     
33   H        15.0238    5.0076   14.5553  H     
34   H        18.8677    3.3156   14.9958  H     
35   H        17.9022    1.4235   16.1158  H     
36   H        13.0325    0.0456   17.0241  H     
37   H        13.1420    1.7094   17.2348  H     
@<TRIPOS>BOND
     1    1    2 1
     2    1    6 1
     3    2    3 2
     4    2    4 am
     5    4    5 1
     6    5   11 1
     7    6    7 2
     8    6   10 1
     9    7    8 1
    10    8    9 2
    11    9   10 1
    12   11   12 1
    13   12   14 2
    14   12   15 1
    15   13   14 1
    16   13   17 2
    17   15   16 2
    18   16   17 1
    19   17   19 1
    20   18   19 am
    21   19   20 2
    22   19   21 2
    23    1   22 1
    24    1   23 1
    25    4   24 1
    26    5   25 1
    27    5   26 1
    28    7   27 1
    29    8   28 1
    30    9   29 1
    31   11   30 1
    32   11   31 1
    33   13   32 1
    34   14   33 1
    35   15   34 1
    36   16   35 1
    37   18   36 1
    38   18   37 1
@<TRIPOS>PROPERTY_DATA
  Total_Score	| 5.4577
  Crash		| -0.7188
  Polar		| 3.3945
  FragIndex	| 1
  FragRMSD	| 1.192

