@<TRIPOS>MOLECULE
BindingDB_16649
 33 33 0 0 0
SMALL
NO_CHARGES


@<TRIPOS>ATOM
1    C        15.9368    2.2517   15.9481  C     
2    C        15.1446    3.2776   15.3932  C     
3    C        15.7459    4.3387   14.6913  C     
4    C        17.1518    4.3959   14.5260  C     
5    C        17.9290    3.3584   15.0883  C     
6    C        17.3338    2.2934   15.7840  C     
7    S        15.2141    0.9127   16.7923  S     
8    O        15.1070   -0.3246   15.8042  O     
9    O        16.1471    0.4923   18.0113  O     
10   N        13.6770    1.1952   17.3994  N     
11   N        17.8576    5.3622   13.8628  N     
12   C        17.4928    6.3633   13.0642  C     
13   O        16.3063    6.5734   12.8295  O     
14   C        19.3586    7.9549   13.4978  C     
15   C        19.4863    6.2779   11.5747  C     
16   C        18.5287    7.1964   12.4092  C     
17   C        17.9264    8.2643   11.4260  C     
18   H        14.1279    3.2569   15.4864  H     
19   H        15.1343    5.0654   14.3195  H     
20   H        18.9481    3.3672   14.9925  H     
21   H        17.9302    1.5515   16.1642  H     
22   H        13.3498    0.6326   18.1221  H     
23   H        13.2257    2.0285   17.1960  H     
24   H        18.8152    5.2701   13.9627  H     
25   H        18.7113    8.5780   14.1172  H     
26   H        20.1086    8.6005   13.0359  H     
27   H        19.8854    7.2595   14.1545  H     
28   H        20.0159    5.5642   12.2098  H     
29   H        20.2434    6.8717   11.0494  H     
30   H        18.9254    5.7142   10.8261  H     
31   H        17.3617    7.7815   10.6315  H     
32   H        18.7130    8.8657   10.9645  H     
33   H        17.2553    8.9460   11.9549  H     
@<TRIPOS>BOND
     1    1    2 1
     2    1    6 2
     3    1    7 1
     4    2    3 2
     5    3    4 1
     6    4    5 2
     7    4   11 1
     8    5    6 1
     9    7    8 2
    10    7    9 2
    11    7   10 am
    12   11   12 am
    13   12   13 2
    14   12   16 1
    15   14   16 1
    16   15   16 1
    17   16   17 1
    18    2   18 1
    19    3   19 1
    20    5   20 1
    21    6   21 1
    22   10   22 1
    23   10   23 1
    24   11   24 1
    25   14   25 1
    26   14   26 1
    27   14   27 1
    28   15   28 1
    29   15   29 1
    30   15   30 1
    31   17   31 1
    32   17   32 1
    33   17   33 1
@<TRIPOS>PROPERTY_DATA
  Total_Score	| 3.5446
  Crash		| -1.1070
  Polar		| 2.8784
  FragIndex	| 1
  FragRMSD	| 1.011

