@<TRIPOS>MOLECULE
BindingDB_35726
 31 32 0 0 0
SMALL
NO_CHARGES


@<TRIPOS>ATOM
1    C        18.3689    7.2671   12.4806  C     
2    C        19.1209    8.0434   13.4936  C     
3    C        19.2558    9.4365   13.5614  C     
4    C        20.0308    9.9148   14.6322  C     
5    C        20.5491    8.9155   15.4566  C     
6    S        20.0378    7.4088   14.8064  S     
7    C        17.3721    6.3879   13.0665  C     
8    O        16.1907    6.6869   12.9461  O     
9    N        17.7934    5.3067   13.7137  N     
10   C        17.1272    4.3286   14.3997  C     
11   C        15.1460    3.1395   15.2230  C     
12   C        15.7208    4.1942   14.4927  C     
13   C        17.9381    3.3748   15.0584  C     
14   C        17.3665    2.3140   15.7861  C     
15   C        15.9652    2.2014   15.8794  C     
16   S        15.2457    0.9101   16.7960  S     
17   O        15.1157   -0.3227   15.8049  O     
18   O        16.1677    0.5177   18.0285  O     
19   N        13.6919    1.2694   17.3152  N     
20   H        17.8985    7.9618   11.7775  H     
21   H        19.0755    6.6690   11.9031  H     
22   H        18.8383   10.0614   12.8686  H     
23   H        20.2114   10.9087   14.7811  H     
24   H        21.1262    9.0532   16.2898  H     
25   H        18.7558    5.1968   13.7190  H     
26   H        14.1297    3.0627   15.2551  H     
27   H        15.0890    4.8451   14.0260  H     
28   H        18.9601    3.4433   15.0173  H     
29   H        17.9778    1.6308   16.2386  H     
30   H        13.1646    0.5786   17.7399  H     
31   H        13.3538    2.1745   17.2622  H     
@<TRIPOS>BOND
     1    1    2 1
     2    1    7 1
     3    2    3 2
     4    2    6 1
     5    3    4 1
     6    4    5 2
     7    5    6 1
     8    7    8 2
     9    7    9 am
    10    9   10 1
    11   10   12 2
    12   10   13 1
    13   11   12 1
    14   11   15 2
    15   13   14 2
    16   14   15 1
    17   15   16 1
    18   16   17 2
    19   16   18 2
    20   16   19 am
    21    1   20 1
    22    1   21 1
    23    3   22 1
    24    4   23 1
    25    5   24 1
    26    9   25 1
    27   11   26 1
    28   12   27 1
    29   13   28 1
    30   14   29 1
    31   19   30 1
    32   19   31 1
@<TRIPOS>PROPERTY_DATA
  Total_Score	| 4.8429
  Crash		| -1.1403
  Polar		| 2.8529
  FragIndex	| 1
  FragRMSD	| 0.903

