@<TRIPOS>MOLECULE
BindingDB_35728
 31 32 0 0 0
SMALL
NO_CHARGES


@<TRIPOS>ATOM
1    C        18.2155    7.4210   12.5324  C     
2    C        18.9987    8.1321   13.5634  C     
3    C        19.2186    9.5179   13.6515  C     
4    C        20.0793    9.9196   14.6862  C     
5    C        20.5654    8.8668   15.4736  C     
6    S        19.9150    7.4059   14.8342  S     
7    C        17.2358    6.4981   13.1006  C     
8    O        16.0347    6.6464   12.8496  O     
9    N        17.6812    5.4686   13.8114  N     
10   C        17.0383    4.4446   14.4707  C     
11   C        17.2435    2.2344   15.5364  C     
12   C        17.8252    3.3345   14.8773  C     
13   C        15.6571    4.4291   14.8053  C     
14   C        15.0827    3.3378   15.4936  C     
15   C        15.8712    2.2245   15.8493  C     
16   S        15.2160    0.8833   16.7447  S     
17   O        15.2696   -0.3839   15.7848  O     
18   O        16.0655    0.5424   18.0466  O     
19   N        13.5744    0.9720   17.0710  N     
20   Cl       19.5075    3.2739   14.6159  Cl    
21   H        17.7161    8.1580   11.8975  H     
22   H        18.9070    6.8561   11.9015  H     
23   H        18.8066   10.1866   12.9952  H     
24   H        20.3417   10.8941   14.8464  H     
25   H        21.2108    8.9443   16.2559  H     
26   H        18.6446    5.4111   13.8611  H     
27   H        17.8270    1.4364   15.8037  H     
28   H        15.0644    5.2347   14.5733  H     
29   H        14.0917    3.3715   15.7415  H     
30   H        13.0253    0.1787   16.9435  H     
31   H        13.1649    1.8253   17.2801  H     
@<TRIPOS>BOND
     1    1    2 1
     2    1    7 1
     3    2    3 2
     4    2    6 1
     5    3    4 1
     6    4    5 2
     7    5    6 1
     8    7    8 2
     9    7    9 am
    10    9   10 1
    11   10   12 2
    12   10   13 1
    13   11   12 1
    14   11   15 2
    15   12   20 1
    16   13   14 2
    17   14   15 1
    18   15   16 1
    19   16   17 2
    20   16   18 2
    21   16   19 am
    22    1   21 1
    23    1   22 1
    24    3   23 1
    25    4   24 1
    26    5   25 1
    27    9   26 1
    28   11   27 1
    29   13   28 1
    30   14   29 1
    31   19   30 1
    32   19   31 1
@<TRIPOS>PROPERTY_DATA
  Total_Score	| 4.1251
  Crash		| -1.2551
  Polar		| 2.7164
  FragIndex	| 1
  FragRMSD	| 0.891

