@<TRIPOS>MOLECULE
BindingDB_16648
 33 33 0 0 0
SMALL
NO_CHARGES


@<TRIPOS>ATOM
1    C        15.9092    2.2113   15.8897  C     
2    C        15.1026    3.2386   15.3648  C     
3    C        15.6872    4.2917   14.6305  C     
4    C        17.0847    4.3383   14.3930  C     
5    C        17.8751    3.3037   14.9483  C     
6    C        17.2999    2.2514   15.6862  C     
7    S        15.2234    0.8961   16.7993  S     
8    O        15.2608   -0.3645   15.8343  O     
9    O        16.0942    0.5418   18.0795  O     
10   N        13.6055    1.0577   17.2235  N     
11   N        17.7697    5.3087   13.7055  N     
12   C        17.3432    6.3867   13.0554  C     
13   O        16.1612    6.5989   12.8318  O     
14   C        18.3181    7.3426   12.5469  C     
15   C        19.4256    7.7309   13.5701  C     
16   C        18.9223    8.3061   14.9235  C     
17   C        19.9987    8.2476   16.0263  C     
18   H        14.0917    3.2415   15.5161  H     
19   H        15.0684    5.0275   14.2888  H     
20   H        18.8957    3.3086   14.8190  H     
21   H        17.9071    1.5251   16.0724  H     
22   H        13.0300    0.2731   17.2087  H     
23   H        13.2061    1.9450   17.2581  H     
24   H        18.7282    5.2068   13.7353  H     
25   H        18.7948    6.9068   11.6691  H     
26   H        17.8179    8.2623   12.2149  H     
27   H        20.0295    6.8429   13.7619  H     
28   H        20.0936    8.4672   13.1072  H     
29   H        18.6009    9.3448   14.7872  H     
30   H        18.0565    7.7330   15.2709  H     
31   H        20.3243    7.2135   16.1811  H     
32   H        19.5885    8.6216   16.9599  H     
33   H        20.8663    8.8505   15.7486  H     
@<TRIPOS>BOND
     1    1    2 1
     2    1    6 2
     3    1    7 1
     4    2    3 2
     5    3    4 1
     6    4    5 2
     7    4   11 1
     8    5    6 1
     9    7    8 2
    10    7    9 2
    11    7   10 am
    12   11   12 am
    13   12   13 2
    14   12   14 1
    15   14   15 1
    16   15   16 1
    17   16   17 1
    18    2   18 1
    19    3   19 1
    20    5   20 1
    21    6   21 1
    22   10   22 1
    23   10   23 1
    24   11   24 1
    25   14   25 1
    26   14   26 1
    27   15   27 1
    28   15   28 1
    29   16   29 1
    30   16   30 1
    31   17   31 1
    32   17   32 1
    33   17   33 1
@<TRIPOS>PROPERTY_DATA
  Total_Score	| 5.3576
  Crash		| -1.1713
  Polar		| 2.7754
  FragIndex	| 1
  FragRMSD	| 1.005

