@<TRIPOS>MOLECULE
BindingDB_14668
 54 57 0 0 0
SMALL
NO_CHARGES


@<TRIPOS>ATOM
1    C         5.8323   -4.1571   17.0705  C     
2    C         7.1115   -4.1409   16.4825  C     
3    C         8.0727   -3.1600   16.8490  C     
4    C         7.7270   -2.1986   17.8328  C     
5    C         9.3674   -3.1543   16.2552  C     
6    C        10.1860   -4.3105   16.2866  C     
7    C        11.4871   -4.2805   15.7587  C     
8    C        11.9926   -3.1060   15.1698  C     
9    C        11.1845   -1.9475   15.1138  C     
10   C         9.8838   -1.9773   15.6553  C     
11   C         5.4897   -3.1919   18.0428  C     
12   C         4.3145   -2.9538   18.7466  C     
13   C         6.4494   -2.2438   18.4131  C     
14   C         4.6519   -1.8841   19.5444  C     
15   N         5.8917   -1.4790   19.3374  N     
16   O         3.9658   -1.3143   20.3963  O     
17   C         3.1553   -3.6242   18.5320  C     
18   O        13.2568   -3.0852   14.6671  O     
19   O        11.6303   -0.8315   14.4657  O     
20   C        12.0553    0.2244   15.3423  C     
21   C         1.8915   -3.4752   19.0827  C     
22   C         0.1613   -2.6359   20.2237  C     
23   C        -0.3729   -3.6424   19.4311  C     
24   N         1.4894   -2.5732   19.9959  N     
25   C         0.7259   -4.2107   18.7907  C     
26   C        -0.5366   -1.7805   21.1946  C     
27   C         0.6317   -5.4133   17.9430  C     
28   C        -1.8015   -4.0220   19.3607  C     
29   C        -2.4048   -4.3043   17.9555  C     
30   O        -3.8126   -3.9796   17.9685  O     
31   H         5.1654   -4.8780   16.7983  H     
32   H         7.3343   -4.8463   15.7748  H     
33   H         8.4020   -1.4897   18.1327  H     
34   H         9.8450   -5.1758   16.7153  H     
35   H        12.0709   -5.1142   15.8067  H     
36   H         9.3046   -1.1339   15.6020  H     
37   H         6.3128   -0.7202   19.7804  H     
38   H         3.1951   -4.2625   17.8051  H     
39   H        13.4543   -4.0072   14.3879  H     
40   H        11.2191    0.6235   15.9193  H     
41   H        12.4607    1.0300   14.7299  H     
42   H        12.8365   -0.1156   16.0259  H     
43   H         2.0839   -1.9455   20.4657  H     
44   H        -1.2972   -1.2009   20.6838  H     
45   H         0.1520   -1.0938   21.6913  H     
46   H        -1.0021   -2.4066   21.9482  H     
47   H         0.7166   -5.1254   16.8672  H     
48   H        -0.3289   -5.9493   18.1069  H     
49   H         1.4499   -6.1315   18.1795  H     
50   H        -1.9734   -4.9107   19.9688  H     
51   H        -2.4073   -3.2237   19.7840  H     
52   H        -1.9327   -3.6915   17.1821  H     
53   H        -2.2629   -5.3706   17.6622  H     
54   H        -4.1886   -4.3317   17.1215  H     
@<TRIPOS>BOND
     1    1    2 2
     2    1   11 1
     3    2    3 1
     4    3    4 2
     5    3    5 1
     6    4   13 1
     7    5    6 2
     8    5   10 1
     9    6    7 1
    10    7    8 2
    11    8    9 1
    12    8   18 1
    13    9   10 2
    14    9   19 1
    15   11   12 1
    16   11   13 2
    17   12   14 1
    18   12   17 2
    19   13   15 1
    20   14   15 1
    21   14   16 2
    22   17   21 1
    23   19   20 1
    24   21   24 1
    25   21   25 2
    26   22   23 2
    27   22   24 1
    28   22   26 1
    29   23   25 1
    30   23   28 1
    31   25   27 1
    32   28   29 1
    33   29   30 1
    34    1   31 1
    35    2   32 1
    36    4   33 1
    37    6   34 1
    38    7   35 1
    39   10   36 1
    40   15   37 1
    41   17   38 1
    42   18   39 1
    43   20   40 1
    44   20   41 1
    45   20   42 1
    46   24   43 1
    47   26   44 1
    48   26   45 1
    49   26   46 1
    50   27   47 1
    51   27   48 1
    52   27   49 1
    53   28   50 1
    54   28   51 1
    55   29   52 1
    56   29   53 1
    57   30   54 1
@<TRIPOS>PROPERTY_DATA
  Total_Score	| 11.4478
  Crash		| -1.4962
  Polar		| 4.8462
  FragIndex	| 1
  FragRMSD	| 0.298

