@<TRIPOS>MOLECULE
BindingDB_14650
 47 51 0 0 0
SMALL
NO_CHARGES


@<TRIPOS>ATOM
1    C         5.8042   -4.0548   16.7755  C     
2    C         7.1110   -4.0280   16.2563  C     
3    C         8.0843   -3.1310   16.7739  C     
4    C         7.7246   -2.2805   17.8479  C     
5    C         5.4469   -3.1899   17.8427  C     
6    C         6.4185   -2.3394   18.3618  C     
7    C         4.2696   -2.9915   18.5537  C     
8    C         4.6187   -2.0769   19.5019  C     
9    N         5.8542   -1.6681   19.3527  N     
10   O         3.8915   -1.4319   20.2367  O     
11   C         3.1402   -3.6980   18.2935  C     
12   C         9.4012   -3.1170   16.2332  C     
13   C        10.2062   -4.2813   16.2697  C     
14   C        11.5140   -4.2640   15.7588  C     
15   C        12.0464   -3.1001   15.1806  C     
16   C        11.2509   -1.9318   15.1285  C     
17   C         9.9395   -1.9429   15.6537  C     
18   O        13.3051   -3.1074   14.6670  O     
19   O        11.7309   -0.8114   14.4977  O     
20   C        12.0439    0.2844   15.3730  C     
21   C         1.9318   -3.9521   18.9642  C     
22   C         1.2684   -5.1699   18.7118  C     
23   N         0.1500   -5.2660   19.4395  N     
24   C         1.0799   -3.2808   19.8582  C     
25   C        -0.9970   -2.5429   21.6379  C     
26   C         0.0331   -1.6315   21.3321  C     
27   C         1.0568   -1.9933   20.4290  C     
28   C         0.0113   -4.1456   20.1464  C     
29   C        -1.0335   -3.8089   21.0232  C     
30   H         5.1262   -4.7042   16.3717  H     
31   H         7.3484   -4.6515   15.4809  H     
32   H         8.4088   -1.6421   18.2652  H     
33   H         6.2747   -0.9348   19.8390  H     
34   H         3.2090   -4.2532   17.4703  H     
35   H         9.8458   -5.1451   16.6827  H     
36   H        12.0914   -5.1072   15.8207  H     
37   H         9.3708   -1.0895   15.5920  H     
38   H        13.4967   -4.0417   14.4165  H     
39   H        11.1586    0.6240   15.9134  H     
40   H        12.4123    1.1162   14.7723  H     
41   H        12.8223    0.0099   16.0848  H     
42   H         1.5867   -5.9044   18.0764  H     
43   H        -0.4662   -6.0164   19.4359  H     
44   H        -1.7328   -2.2734   22.2929  H     
45   H         0.0437   -0.7092   21.7629  H     
46   H         1.7714   -1.3238   20.1979  H     
47   H        -1.7918   -4.4681   21.2075  H     
@<TRIPOS>BOND
     1    1    2 2
     2    1    5 1
     3    2    3 1
     4    3    4 2
     5    3   12 1
     6    4    6 1
     7    5    6 2
     8    5    7 1
     9    6    9 1
    10    7    8 1
    11    7   11 2
    12    8    9 1
    13    8   10 2
    14   11   21 1
    15   12   13 2
    16   12   17 1
    17   13   14 1
    18   14   15 2
    19   15   16 1
    20   15   18 1
    21   16   17 2
    22   16   19 1
    23   19   20 1
    24   21   22 2
    25   21   24 1
    26   22   23 1
    27   23   28 1
    28   24   27 1
    29   24   28 2
    30   25   26 1
    31   25   29 2
    32   26   27 2
    33   28   29 1
    34    1   30 1
    35    2   31 1
    36    4   32 1
    37    9   33 1
    38   11   34 1
    39   13   35 1
    40   14   36 1
    41   17   37 1
    42   18   38 1
    43   20   39 1
    44   20   40 1
    45   20   41 1
    46   22   42 1
    47   23   43 1
    48   25   44 1
    49   26   45 1
    50   27   46 1
    51   29   47 1
@<TRIPOS>PROPERTY_DATA
  Total_Score	| 10.0034
  Crash		| -2.0777
  Polar		| 4.4452
  FragIndex	| 1
  FragRMSD	| 0.421

