@<TRIPOS>MOLECULE
BindingDB_14667
 65 68 0 0 0
SMALL
NO_CHARGES


@<TRIPOS>ATOM
1    C         5.7074   -3.8014   16.7733  C     
2    C         7.0219   -3.8680   16.2769  C     
3    C         8.0509   -3.0770   16.8437  C     
4    C         7.7485   -2.2254   17.9390  C     
5    C         9.3564   -3.1075   16.2957  C     
6    C        10.1348   -4.2836   16.3428  C     
7    C        11.4258   -4.3052   15.7842  C     
8    C        11.9660   -3.1522   15.1842  C     
9    C        11.2015   -1.9662   15.1355  C     
10   C         9.8971   -1.9566   15.6788  C     
11   C         5.4117   -2.9364   17.8485  C     
12   C         4.2469   -2.6351   18.5257  C     
13   C         6.4294   -2.1835   18.4241  C     
14   C         4.6053   -1.7766   19.5193  C     
15   N         5.8866   -1.4798   19.4204  N     
16   O         3.8926   -1.1821   20.3102  O     
17   C         3.0392   -3.1395   18.1810  C     
18   O        13.2183   -3.1872   14.6657  O     
19   O        11.6880   -0.8633   14.4801  O     
20   C        12.0116    0.2553   15.3262  C     
21   C         1.8699   -3.1829   18.9127  C     
22   C         0.2229   -2.5032   20.2058  C     
23   C        -0.1139   -3.8022   19.7935  C     
24   N         1.3821   -2.1668   19.6325  N     
25   C         0.9678   -4.2571   19.0024  C     
26   C        -0.4212   -1.6052   21.1868  C     
27   C         1.1603   -5.6590   18.4754  C     
28   C         0.0971   -6.0221   17.4008  C     
29   C         2.5799   -6.0720   17.9748  C     
30   C        -1.3464   -4.5597   20.1980  C     
31   N        -2.6946   -4.1809   19.6440  N     
32   C        -3.3069   -2.9639   20.2525  C     
33   C        -2.8229   -4.2060   18.1532  C     
34   H         4.9834   -4.3674   16.3367  H     
35   H         7.2182   -4.4697   15.4725  H     
36   H         8.4710   -1.6474   18.3809  H     
37   H         9.7762   -5.1289   16.7953  H     
38   H        11.9787   -5.1645   15.8317  H     
39   H         9.3399   -1.0998   15.6105  H     
40   H         6.3628   -0.8226   19.9626  H     
41   H         2.9851   -3.6328   17.3161  H     
42   H        13.4161   -4.1330   14.4560  H     
43   H        11.1253    0.6438   15.8366  H     
44   H        12.4132    1.0504   14.6991  H     
45   H        12.7648   -0.0122   16.0672  H     
46   H         1.8011   -1.2981   19.7260  H     
47   H        -1.0496   -0.8778   20.6622  H     
48   H         0.3471   -1.0550   21.7411  H     
49   H        -1.0121   -2.1677   21.9179  H     
50   H         0.9951   -6.3155   19.3290  H     
51   H        -0.8986   -6.0329   17.8539  H     
52   H         0.2883   -7.0191   16.9888  H     
53   H         0.1251   -5.2911   16.5895  H     
54   H         2.7886   -5.6892   16.9767  H     
55   H         2.6541   -7.1669   17.9166  H     
56   H         3.3564   -5.7150   18.6559  H     
57   H        -1.2251   -5.6009   19.9156  H     
58   H        -1.3757   -4.5746   21.2890  H     
59   H        -3.3179   -4.9278   19.9610  H     
60   H        -3.3404   -3.0683   21.3382  H     
61   H        -4.3428   -2.8434   19.9154  H     
62   H        -2.7722   -2.0489   19.9991  H     
63   H        -2.0169   -3.6631   17.6700  H     
64   H        -3.7741   -3.7870   17.8199  H     
65   H        -2.7938   -5.2324   17.8022  H     
@<TRIPOS>BOND
     1    1    2 2
     2    1   11 1
     3    2    3 1
     4    3    4 2
     5    3    5 1
     6    4   13 1
     7    5    6 2
     8    5   10 1
     9    6    7 1
    10    7    8 2
    11    8    9 1
    12    8   18 1
    13    9   10 2
    14    9   19 1
    15   11   12 1
    16   11   13 2
    17   12   14 1
    18   12   17 2
    19   13   15 1
    20   14   15 1
    21   14   16 2
    22   17   21 1
    23   19   20 1
    24   21   24 1
    25   21   25 2
    26   22   23 2
    27   22   24 1
    28   22   26 1
    29   23   25 1
    30   23   30 1
    31   25   27 1
    32   27   28 1
    33   27   29 1
    34   30   31 1
    35   31   32 1
    36   31   33 1
    37    1   34 1
    38    2   35 1
    39    4   36 1
    40    6   37 1
    41    7   38 1
    42   10   39 1
    43   15   40 1
    44   17   41 1
    45   18   42 1
    46   20   43 1
    47   20   44 1
    48   20   45 1
    49   24   46 1
    50   26   47 1
    51   26   48 1
    52   26   49 1
    53   27   50 1
    54   28   51 1
    55   28   52 1
    56   28   53 1
    57   29   54 1
    58   29   55 1
    59   29   56 1
    60   30   57 1
    61   30   58 1
    62   31   59 1
    63   32   60 1
    64   32   61 1
    65   32   62 1
    66   33   63 1
    67   33   64 1
    68   33   65 1
@<TRIPOS>PROPERTY_DATA
  Total_Score	| 10.9362
  Crash		| -3.7074
  Polar		| 4.6708
  FragIndex	| 1
  FragRMSD	| 0.320

