@<TRIPOS>MOLECULE
BindingDB_14662
 54 58 0 0 0
SMALL
NO_CHARGES


@<TRIPOS>ATOM
1    C         5.8332   -4.2081   17.1210  C     
2    C         7.1222   -4.2172   16.5480  C     
3    C         8.0883   -3.2274   16.8834  C     
4    C         7.7360   -2.2576   17.8599  C     
5    C         9.3810   -3.2106   16.2787  C     
6    C        10.2142   -4.3562   16.2799  C     
7    C        11.5058   -4.3034   15.7186  C     
8    C        12.0004   -3.1152   15.1516  C     
9    C        11.1899   -1.9601   15.1471  C     
10   C         9.8834   -2.0235   15.6821  C     
11   C         5.4938   -3.2185   18.0630  C     
12   C         4.3430   -2.9181   18.7818  C     
13   C         6.4543   -2.2709   18.4228  C     
14   C         4.6639   -1.8321   19.5386  C     
15   N         5.9101   -1.4660   19.3280  N     
16   O         3.9811   -1.1858   20.3098  O     
17   C         3.1863   -3.6107   18.6395  C     
18   C         1.9373   -3.4681   19.2360  C     
19   C         0.7702   -4.2342   19.0034  C     
20   C         0.3331   -2.5864   20.4877  C     
21   C        -0.2085   -3.6782   19.8434  C     
22   C        -0.3607   -1.6847   21.4055  C     
23   N         1.6306   -2.5275   20.1471  N     
24   O        13.2518   -3.0858   14.6230  O     
25   O        11.6478   -0.8354   14.5068  O     
26   C        12.1085    0.2322   15.3724  C     
27   C         0.5000   -5.3188   18.1052  C     
28   C         1.1763   -7.3212   16.8306  C     
29   C        -0.1158   -7.4505   16.3144  C     
30   C        -1.1133   -6.5435   16.6964  C     
31   C        -0.8063   -5.4816   17.5665  C     
32   C         1.4746   -6.2859   17.7410  C     
33   H         5.1587   -4.9139   16.8281  H     
34   H         7.3392   -4.9364   15.8532  H     
35   H         8.4032   -1.5512   18.1742  H     
36   H         9.9056   -5.2292   16.7060  H     
37   H        12.0967   -5.1377   15.7345  H     
38   H         9.2795   -1.1921   15.6174  H     
39   H         6.3496   -0.7140   19.7550  H     
40   H         3.2265   -4.3319   17.9614  H     
41   H        -1.1799   -3.9939   19.9279  H     
42   H        -1.2405   -1.2635   20.9130  H     
43   H         0.2965   -0.8606   21.6995  H     
44   H        -0.6749   -2.2244   22.3024  H     
45   H         2.2464   -1.8928   20.5343  H     
46   H        13.4765   -4.0105   14.4092  H     
47   H        11.2787    0.6870   15.9220  H     
48   H        12.5500    1.0028   14.7414  H     
49   H        12.8741   -0.1163   16.0829  H     
50   H         1.8955   -8.0054   16.5920  H     
51   H        -0.3364   -8.2137   15.6771  H     
52   H        -2.0591   -6.6338   16.3119  H     
53   H        -1.5536   -4.8164   17.7803  H     
54   H         2.3998   -6.2876   18.1635  H     
@<TRIPOS>BOND
     1    1    2 2
     2    1   11 1
     3    2    3 1
     4    3    4 2
     5    3    5 1
     6    4   13 1
     7    5    6 2
     8    5   10 1
     9    6    7 1
    10    7    8 2
    11    8    9 1
    12    8   24 1
    13    9   10 2
    14    9   25 1
    15   11   12 1
    16   11   13 2
    17   12   14 1
    18   12   17 2
    19   13   15 1
    20   14   15 1
    21   14   16 2
    22   17   18 1
    23   18   19 2
    24   18   23 1
    25   19   21 1
    26   19   27 1
    27   20   21 2
    28   20   22 1
    29   20   23 1
    30   25   26 1
    31   27   31 2
    32   27   32 1
    33   28   29 1
    34   28   32 2
    35   29   30 2
    36   30   31 1
    37    1   33 1
    38    2   34 1
    39    4   35 1
    40    6   36 1
    41    7   37 1
    42   10   38 1
    43   15   39 1
    44   17   40 1
    45   21   41 1
    46   22   42 1
    47   22   43 1
    48   22   44 1
    49   23   45 1
    50   24   46 1
    51   26   47 1
    52   26   48 1
    53   26   49 1
    54   28   50 1
    55   29   51 1
    56   30   52 1
    57   31   53 1
    58   32   54 1
@<TRIPOS>PROPERTY_DATA
  Total_Score	| 11.2934
  Crash		| -1.8991
  Polar		| 4.6718
  FragIndex	| 1
  FragRMSD	| 0.247

