@<TRIPOS>MOLECULE
BindingDB_14649
 41 44 0 0 0
SMALL
NO_CHARGES


@<TRIPOS>ATOM
1    C         5.8949   -4.2546   17.1345  C     
2    C         7.1782   -4.2743   16.5446  C     
3    C         8.1440   -3.2702   16.8393  C     
4    C         7.7903   -2.2505   17.7598  C     
5    C         5.5495   -3.2170   18.0284  C     
6    C         6.5075   -2.2463   18.3242  C     
7    C         4.4206   -2.8800   18.7509  C     
8    C         4.7407   -1.7759   19.4709  C     
9    N         5.9798   -1.4091   19.2122  N     
10   O         4.1275   -1.2856   20.4086  O     
11   C         3.2490   -3.5893   18.7214  C     
12   C         2.0194   -3.2644   19.2666  C     
13   C        -0.0469   -3.5862   20.0014  C     
14   C         0.1852   -2.2232   20.0890  C     
15   C         1.4778   -2.0041   19.6042  C     
16   N         1.0461   -4.1714   19.5001  N     
17   C         9.4407   -3.2680   16.2295  C     
18   C        10.2557   -4.4238   16.2344  C     
19   C        11.5633   -4.3879   15.7090  C     
20   C        12.0738   -3.1959   15.1550  C     
21   C        11.2801   -2.0319   15.1008  C     
22   C         9.9697   -2.0748   15.6269  C     
23   O        13.3552   -3.1697   14.6811  O     
24   O        11.8677   -0.9389   14.4844  O     
25   C        11.4614    0.4103   14.7843  C     
26   H         5.2319   -4.9859   16.8989  H     
27   H         7.4137   -5.0174   15.8819  H     
28   H         8.4579   -1.5261   18.0465  H     
29   H         6.4606   -0.7128   19.6813  H     
30   H         3.2702   -4.4693   18.2572  H     
31   H        -0.9023   -4.0651   20.2806  H     
32   H        -0.4657   -1.5038   20.4313  H     
33   H         1.9094   -1.0795   19.4670  H     
34   H         1.1360   -5.1188   19.3210  H     
35   H         9.9172   -5.2955   16.6583  H     
36   H        12.1515   -5.2198   15.7623  H     
37   H         9.3999   -1.2178   15.5699  H     
38   H        13.5384   -4.0681   14.3214  H     
39   H        10.4837    0.5879   14.3233  H     
40   H        12.2027    1.1179   14.3839  H     
41   H        11.3900    0.5694   15.8618  H     
@<TRIPOS>BOND
     1    1    2 2
     2    1    5 1
     3    2    3 1
     4    3    4 2
     5    3   17 1
     6    4    6 1
     7    5    6 2
     8    5    7 1
     9    6    9 1
    10    7    8 1
    11    7   11 2
    12    8    9 1
    13    8   10 2
    14   11   12 1
    15   12   15 2
    16   12   16 1
    17   13   14 2
    18   13   16 1
    19   14   15 1
    20   17   18 2
    21   17   22 1
    22   18   19 1
    23   19   20 2
    24   20   21 1
    25   20   23 1
    26   21   22 2
    27   21   24 1
    28   24   25 1
    29    1   26 1
    30    2   27 1
    31    4   28 1
    32    9   29 1
    33   11   30 1
    34   13   31 1
    35   14   32 1
    36   15   33 1
    37   16   34 1
    38   18   35 1
    39   19   36 1
    40   22   37 1
    41   23   38 1
    42   25   39 1
    43   25   40 1
    44   25   41 1
@<TRIPOS>PROPERTY_DATA
  Total_Score	| 10.3898
  Crash		| -1.0080
  Polar		| 4.7977
  FragIndex	| 1
  FragRMSD	| 0.791

