@<TRIPOS>MOLECULE
BindingDB_14666
 59 62 0 0 0
SMALL
NO_CHARGES


@<TRIPOS>ATOM
1    C         5.7909   -4.1839   17.0666  C     
2    C         7.0690   -4.1805   16.4663  C     
3    C         8.0313   -3.1900   16.7941  C     
4    C         7.6846   -2.2023   17.7481  C     
5    C         9.3343   -3.1928   16.2183  C     
6    C        10.1610   -4.3391   16.2859  C     
7    C        11.4772   -4.3087   15.7885  C     
8    C        11.9940   -3.1369   15.2048  C     
9    C        11.1870   -1.9816   15.1295  C     
10   C         9.8632   -2.0220   15.6216  C     
11   C         5.4574   -3.1922   18.0200  C     
12   C         4.3229   -2.9133   18.7754  C     
13   C         6.4074   -2.2236   18.3354  C     
14   C         4.6629   -1.8379   19.5400  C     
15   N         5.8780   -1.4294   19.2607  N     
16   O         4.0713   -1.3234   20.4744  O     
17   C         3.1527   -3.5902   18.6491  C     
18   O        13.2658   -3.1202   14.7145  O     
19   O        11.6540   -0.8605   14.4951  O     
20   C        12.0255    0.2207   15.3668  C     
21   C         1.9062   -3.4111   19.2623  C     
22   C         0.2770   -2.5853   20.5222  C     
23   C        -0.2769   -3.6754   19.8463  C     
24   N         1.5583   -2.4733   20.1562  N     
25   C         0.7527   -4.1894   19.0393  C     
26   C         0.6723   -5.3381   18.1074  C     
27   C        -0.3733   -1.6542   21.4582  C     
28   C        -1.6952   -4.1166   19.9263  C     
29   C        -2.0020   -5.1075   21.0866  C     
30   C        -1.9634   -4.4984   22.4277  C     
31   O        -2.8301   -3.4979   22.7190  O     
32   O        -1.1371   -4.9997   23.3840  O     
33   C        -1.0685   -4.5503   24.7388  C     
34   H         5.1186   -4.9092   16.8122  H     
35   H         7.2887   -4.9064   15.7830  H     
36   H         8.3572   -1.4969   18.0428  H     
37   H         9.8241   -5.1987   16.7274  H     
38   H        12.0672   -5.1400   15.8615  H     
39   H         9.2805   -1.1850   15.5353  H     
40   H         6.3390   -0.7060   19.7171  H     
41   H         3.1753   -4.3285   17.9877  H     
42   H        13.4480   -4.0288   14.3817  H     
43   H        11.1723    0.5808   15.9449  H     
44   H        12.3878    1.0440   14.7516  H     
45   H        12.8253   -0.0742   16.0482  H     
46   H         2.1296   -1.7890   20.5017  H     
47   H         0.8199   -4.9819   17.0850  H     
48   H        -0.2832   -5.8560   18.1596  H     
49   H         1.4574   -6.0556   18.3538  H     
50   H        -1.2352   -1.1924   20.9762  H     
51   H         0.3240   -0.8689   21.7542  H     
52   H        -0.6977   -2.1795   22.3550  H     
53   H        -2.3430   -3.2417   19.9913  H     
54   H        -1.9616   -4.6000   18.9860  H     
55   H        -3.0153   -5.4963   20.9486  H     
56   H        -1.3193   -5.9620   21.0472  H     
57   H        -0.7695   -3.5021   24.7823  H     
58   H        -0.3334   -5.1524   25.2733  H     
59   H        -2.0406   -4.6665   25.2229  H     
@<TRIPOS>BOND
     1    1    2 2
     2    1   11 1
     3    2    3 1
     4    3    4 2
     5    3    5 1
     6    4   13 1
     7    5    6 2
     8    5   10 1
     9    6    7 1
    10    7    8 2
    11    8    9 1
    12    8   18 1
    13    9   10 2
    14    9   19 1
    15   11   12 1
    16   11   13 2
    17   12   14 1
    18   12   17 2
    19   13   15 1
    20   14   15 1
    21   14   16 2
    22   17   21 1
    23   19   20 1
    24   21   24 1
    25   21   25 2
    26   22   23 2
    27   22   24 1
    28   22   27 1
    29   23   25 1
    30   23   28 1
    31   25   26 1
    32   28   29 1
    33   29   30 1
    34   30   31 2
    35   30   32 1
    36   32   33 1
    37    1   34 1
    38    2   35 1
    39    4   36 1
    40    6   37 1
    41    7   38 1
    42   10   39 1
    43   15   40 1
    44   17   41 1
    45   18   42 1
    46   20   43 1
    47   20   44 1
    48   20   45 1
    49   24   46 1
    50   26   47 1
    51   26   48 1
    52   26   49 1
    53   27   50 1
    54   27   51 1
    55   27   52 1
    56   28   53 1
    57   28   54 1
    58   29   55 1
    59   29   56 1
    60   33   57 1
    61   33   58 1
    62   33   59 1
@<TRIPOS>PROPERTY_DATA
  Total_Score	| 12.3963
  Crash		| -1.7332
  Polar		| 4.6020
  FragIndex	| 1
  FragRMSD	| 0.199

