@<TRIPOS>MOLECULE
BindingDB_50325283
 40 43 0 0 0
SMALL
NO_CHARGES


@<TRIPOS>ATOM
1    C        11.5978   -4.3866   15.6992  C     
2    C        12.1133   -3.2055   15.1387  C     
3    C        11.3210   -2.0354   15.1063  C     
4    C        10.0256   -2.0787   15.6488  C     
5    C         9.4823   -3.2799   16.2300  C     
6    C        10.2975   -4.4201   16.2302  C     
7    O        13.3787   -3.1871   14.6381  O     
8    O        11.9076   -0.9388   14.4801  O     
9    C        11.4523    0.3845   14.7570  C     
10   C         8.2057   -3.2513   16.8387  C     
11   C         7.8988   -2.2379   17.7820  C     
12   C         5.9496   -4.1873   17.1558  C     
13   C         7.2224   -4.2315   16.5467  C     
14   C         5.6558   -3.1641   18.0846  C     
15   C         6.6291   -2.2083   18.3664  C     
16   N         6.1218   -1.3595   19.2481  N     
17   C         4.9076   -1.7352   19.5506  C     
18   C         4.5382   -2.8386   18.8491  C     
19   O         4.3418   -1.1588   20.4771  O     
20   C         3.3828   -3.5375   18.8250  C     
21   C         2.1408   -3.2626   19.4017  C     
22   S         1.5487   -1.8537   20.1944  S     
23   C        -0.0778   -2.4052   20.4801  C     
24   C        -0.1423   -3.6821   19.9392  C     
25   C         1.0520   -4.1450   19.3564  C     
26   H        12.1776   -5.2261   15.7298  H     
27   H         9.4090   -1.2720   15.6497  H     
28   H         9.9574   -5.2889   16.6520  H     
29   H        13.6052   -4.1084   14.3902  H     
30   H        11.4010    0.5924   15.8169  H     
31   H        12.1520    1.1247   14.2990  H     
32   H        10.5105    0.5801   14.2659  H     
33   H         8.5929   -1.5375   18.0521  H     
34   H         5.2514   -4.8953   16.9140  H     
35   H         7.4255   -4.9833   15.8835  H     
36   H         6.5938   -0.6193   19.6533  H     
37   H         3.3985   -4.3734   18.2840  H     
38   H        -0.8115   -1.8740   20.9274  H     
39   H        -1.0004   -4.2341   19.9475  H     
40   H         1.1055   -5.0645   18.9118  H     
@<TRIPOS>BOND
     1   14   12 1
     2    6    1 1
     3   12   13 2
     4   13   10 1
     5   14   15 2
     6    1    2 2
     7    2    7 1
     8    3    4 2
     9    3    8 1
    10   15   16 1
    11   16   17 1
    12   17   18 1
    13   18   14 1
    14    8    9 1
    15   17   19 2
    16    4    5 1
    17   18   20 2
    18    5   10 1
    19   20   21 1
    20   21   22 1
    21    2    3 1
    22   10   11 2
    23   11   15 1
    24    5    6 2
    25   22   23 1
    26   23   24 2
    27   24   25 1
    28   25   21 2
    29    1   26 1
    30    4   27 1
    31    6   28 1
    32    7   29 1
    33    9   30 1
    34    9   31 1
    35    9   32 1
    36   11   33 1
    37   12   34 1
    38   13   35 1
    39   16   36 1
    40   20   37 1
    41   23   38 1
    42   24   39 1
    43   25   40 1
@<TRIPOS>PROPERTY_DATA
  Total_Score	| 10.0182
  Crash		| -1.3540
  Polar		| 4.8158
  FragIndex	| 1
  FragRMSD	| 0.363

