@<TRIPOS>MOLECULE
BindingDB_14660
 47 50 0 0 0
SMALL
NO_CHARGES


@<TRIPOS>ATOM
1    C         5.7539   -4.1134   17.0354  C     
2    C         7.0378   -4.1157   16.4512  C     
3    C         8.0169   -3.1610   16.8262  C     
4    C         7.6815   -2.1958   17.8094  C     
5    C         9.3165   -3.1682   16.2488  C     
6    C        10.1321   -4.3232   16.3050  C     
7    C        11.4346   -4.3067   15.7741  C     
8    C        11.9456   -3.1435   15.1663  C     
9    C        11.1463   -1.9826   15.1076  C     
10   C         9.8389   -2.0031   15.6395  C     
11   C         5.4347   -3.1524   18.0196  C     
12   C         4.2921   -2.8800   18.7685  C     
13   C         6.3998   -2.2123   18.3819  C     
14   C         4.6362   -1.8285   19.5641  C     
15   N         5.8642   -1.4352   19.3206  N     
16   O         4.0224   -1.2916   20.4686  O     
17   C         3.1184   -3.5360   18.5990  C     
18   C         1.8640   -3.3604   19.1902  C     
19   C         0.7036   -4.0801   18.8524  C     
20   C         0.2013   -2.5797   20.4378  C     
21   C        -0.3294   -3.5859   19.6468  C     
22   C         0.5383   -5.1409   17.8367  C     
23   C        -0.5281   -1.7399   21.3982  C     
24   N         1.5035   -2.4858   20.1504  N     
25   O        13.2025   -3.1405   14.6402  O     
26   O        11.6071   -0.8761   14.4455  O     
27   C        12.0403    0.1981   15.2957  C     
28   H         5.0682   -4.8114   16.7442  H     
29   H         7.2497   -4.8194   15.7392  H     
30   H         8.3663   -1.5065   18.1268  H     
31   H         9.7947   -5.1763   16.7579  H     
32   H        12.0195   -5.1418   15.8360  H     
33   H         9.2602   -1.1617   15.5650  H     
34   H         6.3228   -0.7215   19.7892  H     
35   H         3.1324   -4.2517   17.9098  H     
36   H        -1.3051   -3.8870   19.6318  H     
37   H         0.8001   -4.7489   16.8516  H     
38   H        -0.4944   -5.4977   17.8059  H     
39   H         1.1917   -5.9810   18.0771  H     
40   H        -1.3429   -1.2296   20.8820  H     
41   H         0.1387   -0.9904   21.8280  H     
42   H        -0.9355   -2.3550   22.2031  H     
43   H         2.0794   -1.8622   20.5911  H     
44   H        13.4365   -4.0823   14.4749  H     
45   H        11.2116    0.6013   15.8792  H     
46   H        12.4285    0.9952   14.6607  H     
47   H        12.8359   -0.1224   15.9709  H     
@<TRIPOS>BOND
     1    1    2 2
     2    1   11 1
     3    2    3 1
     4    3    4 2
     5    3    5 1
     6    4   13 1
     7    5    6 2
     8    5   10 1
     9    6    7 1
    10    7    8 2
    11    8    9 1
    12    8   25 1
    13    9   10 2
    14    9   26 1
    15   11   12 1
    16   11   13 2
    17   12   14 1
    18   12   17 2
    19   13   15 1
    20   14   15 1
    21   14   16 2
    22   17   18 1
    23   18   19 2
    24   18   24 1
    25   19   21 1
    26   19   22 1
    27   20   21 2
    28   20   23 1
    29   20   24 1
    30   26   27 1
    31    1   28 1
    32    2   29 1
    33    4   30 1
    34    6   31 1
    35    7   32 1
    36   10   33 1
    37   15   34 1
    38   17   35 1
    39   21   36 1
    40   22   37 1
    41   22   38 1
    42   22   39 1
    43   23   40 1
    44   23   41 1
    45   23   42 1
    46   24   43 1
    47   25   44 1
    48   27   45 1
    49   27   46 1
    50   27   47 1
@<TRIPOS>PROPERTY_DATA
  Total_Score	| 10.9964
  Crash		| -1.2946
  Polar		| 4.5630
  FragIndex	| 1
  FragRMSD	| 0.286

