@<TRIPOS>MOLECULE
BindingDB_14654
 37 40 0 0 0
SMALL
NO_CHARGES


@<TRIPOS>ATOM
1    C         5.7786   -4.1379   17.0900  C     
2    C         7.0596   -4.1470   16.4969  C     
3    C         8.0452   -3.1863   16.8514  C     
4    C         7.7114   -2.2041   17.8184  C     
5    C         9.3432   -3.2052   16.2626  C     
6    C        10.1177   -4.3921   16.2420  C     
7    C        11.4269   -4.3926   15.7281  C     
8    C        11.9892   -3.2101   15.2092  C     
9    C        11.2277   -2.0251   15.2116  C     
10   C         9.9206   -2.0236   15.7333  C     
11   O        13.2622   -3.1910   14.7260  O     
12   C         5.4725   -3.1562   18.0557  C     
13   C         4.3407   -2.8747   18.7997  C     
14   C         6.4293   -2.2001   18.3884  C     
15   C         4.6641   -1.7869   19.5550  C     
16   N         5.8926   -1.3955   19.3031  N     
17   O         4.0508   -1.3259   20.5047  O     
18   C         3.2004   -3.5947   18.7654  C     
19   C         1.9570   -3.2873   19.3036  C     
20   C         1.4098   -2.0436   19.6375  C     
21   C         0.9297   -4.2118   19.5211  C     
22   C         0.1135   -2.2635   20.0909  C     
23   N        -0.1502   -3.5763   20.0031  N     
24   H         5.0883   -4.8382   16.8177  H     
25   H         7.2637   -4.8589   15.7871  H     
26   H         8.3958   -1.5058   18.1271  H     
27   H         9.7453   -5.2644   16.6309  H     
28   H        11.9775   -5.2530   15.7369  H     
29   H        11.6254   -1.1628   14.8357  H     
30   H         9.3934   -1.1474   15.7218  H     
31   H        13.4991   -4.1280   14.5379  H     
32   H         6.3623   -0.6832   19.7640  H     
33   H         3.2484   -4.4713   18.2945  H     
34   H         1.8485   -1.1275   19.5292  H     
35   H         0.9792   -5.2178   19.3406  H     
36   H        -0.5453   -1.5467   20.3994  H     
37   H        -0.9972   -3.9991   20.2286  H     
@<TRIPOS>BOND
     1    1    2 2
     2    1   12 1
     3    2    3 1
     4    3    4 2
     5    3    5 1
     6    4   14 1
     7    5    6 2
     8    5   10 1
     9    6    7 1
    10    7    8 2
    11    8    9 1
    12    8   11 1
    13    9   10 2
    14   12   13 1
    15   12   14 2
    16   13   15 1
    17   13   18 2
    18   14   16 1
    19   15   16 1
    20   15   17 2
    21   18   19 1
    22   19   20 1
    23   19   21 2
    24   20   22 2
    25   21   23 1
    26   22   23 1
    27    1   24 1
    28    2   25 1
    29    4   26 1
    30    6   27 1
    31    7   28 1
    32    9   29 1
    33   10   30 1
    34   11   31 1
    35   16   32 1
    36   18   33 1
    37   20   34 1
    38   21   35 1
    39   22   36 1
    40   23   37 1
@<TRIPOS>PROPERTY_DATA
  Total_Score	| 9.5236
  Crash		| -0.7984
  Polar		| 4.6784
  FragIndex	| 1
  FragRMSD	| 0.148

