@<TRIPOS>MOLECULE
BindingDB_14661
 53 56 0 0 0
SMALL
NO_CHARGES


@<TRIPOS>ATOM
1    C         5.7063   -4.1108   17.2236  C     
2    C         6.9805   -4.1178   16.6198  C     
3    C         7.9651   -3.1699   16.9809  C     
4    C         7.6369   -2.2158   17.9815  C     
5    C         9.2494   -3.1717   16.3682  C     
6    C        10.0444   -4.3431   16.3498  C     
7    C        11.3399   -4.3317   15.7848  C     
8    C        11.8572   -3.1623   15.1978  C     
9    C        11.0616   -1.9941   15.1836  C     
10   C         9.7727   -2.0065   15.7687  C     
11   C         5.3800   -3.1161   18.1768  C     
12   C         4.2021   -2.8093   18.8631  C     
13   C         6.3483   -2.1914   18.5583  C     
14   C         4.5278   -1.7859   19.6931  C     
15   N         5.7740   -1.3914   19.4921  N     
16   O         3.8316   -1.2402   20.5496  O     
17   C         3.0035   -3.3617   18.5419  C     
18   C         1.7378   -3.3600   19.1082  C     
19   C         0.6208   -4.1508   18.7043  C     
20   C         0.0590   -2.7387   20.4036  C     
21   C        -0.4196   -3.7185   19.5420  C     
22   C        -0.7495   -1.9584   21.3456  C     
23   N         1.3577   -2.5683   20.1288  N     
24   O        13.1119   -3.1442   14.6723  O     
25   O        11.4941   -0.9055   14.4758  O     
26   C        11.9687    0.1778   15.2910  C     
27   C         0.4346   -5.0910   17.5238  C     
28   C         1.6197   -6.0614   17.1868  C     
29   C        -0.8731   -5.9638   17.6090  C     
30   H         5.0429   -4.8411   16.9525  H     
31   H         7.1725   -4.8153   15.8980  H     
32   H         8.3285   -1.5414   18.2996  H     
33   H         9.7091   -5.2161   16.7671  H     
34   H        11.9150   -5.1786   15.8027  H     
35   H         9.2134   -1.1536   15.7439  H     
36   H         6.2161   -0.6488   19.9518  H     
37   H         3.0329   -3.8459   17.6839  H     
38   H        -1.4038   -4.0068   19.5112  H     
39   H        -1.5886   -1.5063   20.8095  H     
40   H        -0.1335   -1.1692   21.7784  H     
41   H        -1.1312   -2.5994   22.1452  H     
42   H         1.9157   -1.9239   20.5921  H     
43   H        13.3311   -4.0717   14.4096  H     
44   H        11.1683    0.5821   15.9101  H     
45   H        12.3220    0.9700   14.6350  H     
46   H        12.7954   -0.1320   15.9323  H     
47   H         0.3071   -4.4275   16.6591  H     
48   H         2.4604   -5.5372   16.7217  H     
49   H         1.3253   -6.8345   16.4613  H     
50   H         1.9794   -6.5561   18.0960  H     
51   H        -0.8786   -6.5473   18.5418  H     
52   H        -0.9281   -6.6746   16.7688  H     
53   H        -1.7719   -5.3433   17.5690  H     
@<TRIPOS>BOND
     1    1    2 2
     2    1   11 1
     3    2    3 1
     4    3    4 2
     5    3    5 1
     6    4   13 1
     7    5    6 2
     8    5   10 1
     9    6    7 1
    10    7    8 2
    11    8    9 1
    12    8   24 1
    13    9   10 2
    14    9   25 1
    15   11   12 1
    16   11   13 2
    17   12   14 1
    18   12   17 2
    19   13   15 1
    20   14   15 1
    21   14   16 2
    22   17   18 1
    23   18   19 2
    24   18   23 1
    25   19   21 1
    26   19   27 1
    27   20   21 2
    28   20   22 1
    29   20   23 1
    30   25   26 1
    31   27   28 1
    32   27   29 1
    33    1   30 1
    34    2   31 1
    35    4   32 1
    36    6   33 1
    37    7   34 1
    38   10   35 1
    39   15   36 1
    40   17   37 1
    41   21   38 1
    42   22   39 1
    43   22   40 1
    44   22   41 1
    45   23   42 1
    46   24   43 1
    47   26   44 1
    48   26   45 1
    49   26   46 1
    50   27   47 1
    51   28   48 1
    52   28   49 1
    53   28   50 1
    54   29   51 1
    55   29   52 1
    56   29   53 1
@<TRIPOS>PROPERTY_DATA
  Total_Score	| 10.8374
  Crash		| -1.5811
  Polar		| 4.4322
  FragIndex	| 1
  FragRMSD	| 0.129

