@<TRIPOS>MOLECULE
BindingDB_33280
 38 37 0 0 0
SMALL
NO_CHARGES


@<TRIPOS>ATOM
1    S        -6.2725    1.4896   16.6837  S     
2    O        -6.1168    2.8438   15.6768  O     
3    N        -7.7336    1.5239   17.5025  N     
4    O        -6.2082    0.0700   15.7724  O     
5    O        -5.0454    1.4130   17.8377  O     
6    C        -5.7060    2.8161   14.3077  C     
7    C        -4.6485    3.9061   14.0136  C     
8    C        -5.1928    5.3554   14.1705  C     
9    C        -4.2375    6.4421   13.6237  C     
10   C        -3.1159    6.8560   14.6163  C     
11   C        -2.1288    7.8768   13.9860  C     
12   C        -0.9984    8.3644   14.9500  C     
13   C        -1.0603    9.8644   15.3990  C     
14   C         0.3007   10.6112   15.2707  C     
15   C         0.3328   11.9675   16.0152  C     
16   H        -7.8354    1.0054   18.3140  H     
17   H        -8.5071    1.9353   17.0860  H     
18   H        -5.3065    1.8348   14.0350  H     
19   H        -6.5814    2.9964   13.6802  H     
20   H        -3.7906    3.7589   14.6795  H     
21   H        -4.3027    3.7652   12.9864  H     
22   H        -6.1386    5.4268   13.6240  H     
23   H        -5.4093    5.5506   15.2245  H     
24   H        -3.7915    6.0928   12.6875  H     
25   H        -4.8214    7.3332   13.3848  H     
26   H        -3.5730    7.2887   15.5149  H     
27   H        -2.5545    5.9626   14.9160  H     
28   H        -1.6610    7.3873   13.1272  H     
29   H        -2.6963    8.7267   13.5991  H     
30   H        -0.9848    7.7367   15.8462  H     
31   H        -0.0452    8.1878   14.4439  H     
32   H        -1.8083   10.4121   14.8182  H     
33   H        -1.3796    9.8962   16.4478  H     
34   H         1.0966    9.9861   15.6805  H     
35   H         0.5162   10.7875   14.2110  H     
36   H        -0.4523   12.6264   15.6392  H     
37   H         1.2991   12.4511   15.8619  H     
38   H         0.1886   11.8152   17.0876  H     
@<TRIPOS>BOND
     1    1    2 1
     2    1    3 am
     3    1    4 2
     4    1    5 2
     5    2    6 1
     6    6    7 1
     7    7    8 1
     8    8    9 1
     9    9   10 1
    10   10   11 1
    11   11   12 1
    12   12   13 1
    13   13   14 1
    14   14   15 1
    15    3   16 1
    16    3   17 1
    17    6   18 1
    18    6   19 1
    19    7   20 1
    20    7   21 1
    21    8   22 1
    22    8   23 1
    23    9   24 1
    24    9   25 1
    25   10   26 1
    26   10   27 1
    27   11   28 1
    28   11   29 1
    29   12   30 1
    30   12   31 1
    31   13   32 1
    32   13   33 1
    33   14   34 1
    34   14   35 1
    35   15   36 1
    36   15   37 1
    37   15   38 1
@<TRIPOS>PROPERTY_DATA
  Total_Score	| 4.9316
  Crash		| -1.6595
  Polar		| 3.0410
  FragIndex	| 1
  FragRMSD	| 1.183

