@<TRIPOS>MOLECULE
BindingDB_50159810
 50 49 0 0 0
SMALL
NO_CHARGES


@<TRIPOS>ATOM
1    S         1.0493   13.8459   17.5670  S     
2    S        -6.3225    1.5305   16.7151  S     
3    O         0.3605   12.6602   18.5655  O     
4    O         2.3509   14.6354   18.3111  O     
5    O        -6.6037    0.0588   15.9409  O     
6    O        -5.4936    1.2431   18.1686  O     
7    N        -0.0975   14.9984   17.1580  N     
8    N        -7.7720    2.3033   17.0934  N     
9    O         1.5951   13.1043   16.1421  O     
10   O        -5.3848    2.5961   15.7868  O     
11   C        -4.9532    2.3100   14.4528  C     
12   C         1.4360   11.7040   15.8931  C     
13   C         1.6592   11.3686   14.3996  C     
14   C        -4.4637    3.6071   13.7577  C     
15   C        -3.5852    4.5309   14.6625  C     
16   C         1.7147    9.8502   14.0714  C     
17   C         0.3633    9.1192   13.8045  C     
18   C        -0.7372    9.2900   14.8889  C     
19   C        -1.8249    8.1833   14.9698  C     
20   C        -2.2563    7.5307   13.6230  C     
21   C        -3.7061    6.9389   13.6155  C     
22   C        -4.1062    5.9924   14.7930  C     
23   H         0.1079   15.9332   17.3450  H     
24   H        -1.0231   14.7173   17.0419  H     
25   H        -7.7600    3.2719   17.1474  H     
26   H        -8.5973    1.8110   16.9504  H     
27   H        -4.1592    1.5629   14.4818  H     
28   H        -5.7960    1.9033   13.8912  H     
29   H         2.1677   11.1625   16.4982  H     
30   H         0.4346   11.4102   16.2056  H     
31   H         0.8838   11.8540   13.7933  H     
32   H         2.6223   11.8016   14.1170  H     
33   H        -3.8923    3.3114   12.8659  H     
34   H        -5.3594    4.1401   13.4067  H     
35   H        -3.5150    4.1062   15.6710  H     
36   H        -2.5584    4.5359   14.2791  H     
37   H         2.3191    9.7318   13.1663  H     
38   H         2.2488    9.3291   14.8703  H     
39   H        -0.0354    9.4575   12.8414  H     
40   H         0.5900    8.0487   13.7046  H     
41   H        -0.2604    9.3228   15.8722  H     
42   H        -1.2290   10.2458   14.7255  H     
43   H        -1.4670    7.3894   15.6318  H     
44   H        -2.6958    8.6390   15.4407  H     
45   H        -2.2058    8.2846   12.8243  H     
46   H        -1.5423    6.7390   13.3684  H     
47   H        -4.3968    7.7872   13.6222  H     
48   H        -3.8591    6.4219   12.6602  H     
49   H        -5.2000    5.9811   14.8685  H     
50   H        -3.7438    6.4051   15.7426  H     
@<TRIPOS>BOND
     1    1    3 2
     2    1    4 2
     3    1    7 am
     4    1    9 1
     5    2    5 2
     6    2    6 2
     7    2    8 am
     8    2   10 1
     9    9   12 1
    10   10   11 1
    11   11   14 1
    12   12   13 1
    13   13   16 1
    14   14   15 1
    15   15   22 1
    16   16   17 1
    17   17   18 1
    18   18   19 1
    19   19   20 1
    20   20   21 1
    21   21   22 1
    22    7   23 1
    23    7   24 1
    24    8   25 1
    25    8   26 1
    26   11   27 1
    27   11   28 1
    28   12   29 1
    29   12   30 1
    30   13   31 1
    31   13   32 1
    32   14   33 1
    33   14   34 1
    34   15   35 1
    35   15   36 1
    36   16   37 1
    37   16   38 1
    38   17   39 1
    39   17   40 1
    40   18   41 1
    41   18   42 1
    42   19   43 1
    43   19   44 1
    44   20   45 1
    45   20   46 1
    46   21   47 1
    47   21   48 1
    48   22   49 1
    49   22   50 1
@<TRIPOS>PROPERTY_DATA
  Total_Score	| 6.2736
  Crash		| -1.3356
  Polar		| 4.6199
  FragIndex	| 1
  FragRMSD	| 1.360

