@<TRIPOS>MOLECULE
BindingDB_50159803
 62 61 0 0 0
SMALL
NO_CHARGES


@<TRIPOS>ATOM
1    S        -6.6263    0.9904   17.0961  S     
2    S        -1.3211   12.2255   13.9936  S     
3    O        -8.2282    0.7141   17.5524  O     
4    O        -5.5394    0.7230   18.3663  O     
5    O        -0.9357   13.2259   15.3035  O     
6    O         0.0889   12.1398   13.0684  O     
7    N        -6.4046    2.5794   16.5942  N     
8    N        -2.5436   12.9206   13.0805  N     
9    O        -6.1470   -0.0580   15.8555  O     
10   O        -1.7657   10.6810   14.5122  O     
11   C        -0.9116    9.7685   15.2048  C     
12   C        -4.7920   -0.2418   15.4413  C     
13   C        -4.6038    0.2596   13.9951  C     
14   C        -1.7116    8.5070   15.6094  C     
15   C        -4.9455    3.6889   14.0536  C     
16   C        -5.3363    5.1855   14.1114  C     
17   C        -4.2551    6.2158   13.6914  C     
18   C        -3.1870    6.5253   14.7761  C     
19   C        -2.2956    7.7358   14.3926  C     
20   C        -4.5160   -0.8860   12.9380  C     
21   C        -4.7281   -0.5063   11.4384  C     
22   C        -3.4634   -0.1096   10.5962  C     
23   C        -3.0628    1.3960   10.5078  C     
24   C        -2.2669    1.9857   11.7117  C     
25   C        -2.8899    3.2129   12.4400  C     
26   C        -4.4410    3.1907   12.6593  C     
27   H        -5.5043    2.9020   16.4091  H     
28   H        -7.1510    3.2053   16.6199  H     
29   H        -3.2361   12.3569   12.6771  H     
30   H        -2.5581   13.8816   12.9460  H     
31   H        -0.0757    9.4987   14.5594  H     
32   H        -0.5194   10.2511   16.1042  H     
33   H        -4.1045    0.3160   16.0865  H     
34   H        -4.5373   -1.2994   15.5119  H     
35   H        -5.4210    0.9540   13.7842  H     
36   H        -3.6717    0.8137   13.9875  H     
37   H        -1.0693    7.8399   16.1839  H     
38   H        -2.5286    8.8254   16.2581  H     
39   H        -4.2201    3.4546   14.8320  H     
40   H        -5.8572    3.1396   14.2982  H     
41   H        -6.2111    5.3188   13.4623  H     
42   H        -5.6654    5.4250   15.1305  H     
43   H        -3.7661    5.8682   12.7827  H     
44   H        -4.7718    7.1428   13.4428  H     
45   H        -3.7146    6.7362   15.7099  H     
46   H        -2.5599    5.6475   14.9436  H     
47   H        -2.8907    8.4349   13.8034  H     
48   H        -1.4711    7.3923   13.7644  H     
49   H        -3.5349   -1.3706   13.0171  H     
50   H        -5.2564   -1.6531   13.2159  H     
51   H        -5.1493   -1.3967   10.9589  H     
52   H        -5.4933    0.2650   11.3504  H     
53   H        -2.5848   -0.7021   10.9034  H     
54   H        -3.6719   -0.4071    9.5549  H     
55   H        -2.4149    1.4836    9.6333  H     
56   H        -3.9505    1.9936   10.2806  H     
57   H        -2.0560    1.2036   12.4308  H     
58   H        -1.2814    2.2963   11.3521  H     
59   H        -2.3876    3.3224   13.4092  H     
60   H        -2.6275    4.1071   11.8655  H     
61   H        -4.8153    2.1758   12.5073  H     
62   H        -4.9079    3.7881   11.8732  H     
@<TRIPOS>BOND
     1    1    3 2
     2    1    4 2
     3    1    7 am
     4    1    9 1
     5    2    5 2
     6    2    6 2
     7    2    8 am
     8    2   10 1
     9    9   12 1
    10   10   11 1
    11   11   14 1
    12   12   13 1
    13   13   20 1
    14   14   19 1
    15   15   16 1
    16   15   26 1
    17   16   17 1
    18   17   18 1
    19   18   19 1
    20   20   21 1
    21   21   22 1
    22   22   23 1
    23   23   24 1
    24   24   25 1
    25   25   26 1
    26    7   27 1
    27    7   28 1
    28    8   29 1
    29    8   30 1
    30   11   31 1
    31   11   32 1
    32   12   33 1
    33   12   34 1
    34   13   35 1
    35   13   36 1
    36   14   37 1
    37   14   38 1
    38   15   39 1
    39   15   40 1
    40   16   41 1
    41   16   42 1
    42   17   43 1
    43   17   44 1
    44   18   45 1
    45   18   46 1
    46   19   47 1
    47   19   48 1
    48   20   49 1
    49   20   50 1
    50   21   51 1
    51   21   52 1
    52   22   53 1
    53   22   54 1
    54   23   55 1
    55   23   56 1
    56   24   57 1
    57   24   58 1
    58   25   59 1
    59   25   60 1
    60   26   61 1
    61   26   62 1
@<TRIPOS>PROPERTY_DATA
  Total_Score	| 5.9584
  Crash		| -3.7437
  Polar		| 2.8784
  FragIndex	| 1
  FragRMSD	| 1.278

