@<TRIPOS>MOLECULE
BindingDB_33282
 44 43 0 0 0
SMALL
NO_CHARGES


@<TRIPOS>ATOM
1    S        -6.2315    1.5119   17.0865  S     
2    O        -4.8547    2.3228   16.5567  O     
3    N        -7.5691    2.4857   16.8667  N     
4    O        -6.4430   -0.0114   16.3520  O     
5    O        -6.1177    1.2079   18.7637  O     
6    C        -3.8711    1.7438   15.6924  C     
7    C        -3.9716    2.2217   14.2124  C     
8    C        -5.4194    2.5484   13.7158  C     
9    C        -5.7248    4.0055   13.2898  C     
10   C        -5.3097    5.1562   14.2524  C     
11   C        -4.2092    6.1100   13.7188  C     
12   C        -3.1791    6.5479   14.7890  C     
13   C        -2.3316    7.7809   14.3745  C     
14   C        -1.6686    8.5038   15.5813  C     
15   C        -0.8838    9.7704   15.1666  C     
16   O        -1.7940   10.7519   14.6637  O     
17   S        -1.3292   12.2356   13.9880  S     
18   N        -0.8592   13.2838   15.2064  N     
19   O         0.0643   11.9970   13.0446  O     
20   O        -2.5615   12.9294   13.0593  O     
21   H        -8.4713    2.1250   16.9881  H     
22   H        -7.4773    3.3342   16.3769  H     
23   H        -2.8931    2.0182   16.0991  H     
24   H        -3.9265    0.6464   15.7124  H     
25   H        -3.3214    3.0920   14.0766  H     
26   H        -3.5543    1.4281   13.5790  H     
27   H        -5.6527    1.8969   12.8801  H     
28   H        -6.1498    2.2784   14.4966  H     
29   H        -5.2672    4.1652   12.3030  H     
30   H        -6.8011    4.0786   13.1352  H     
31   H        -6.1855    5.7702   14.4846  H     
32   H        -4.9844    4.7367   15.2120  H     
33   H        -3.6457    5.6480   12.8914  H     
34   H        -4.6916    7.0055   13.3051  H     
35   H        -3.7033    6.7751   15.7314  H     
36   H        -2.4982    5.7131   14.9807  H     
37   H        -1.5506    7.4580   13.6725  H     
38   H        -2.9825    8.4850   13.8473  H     
39   H        -2.4428    8.7929   16.2969  H     
40   H        -0.9890    7.8082   16.0821  H     
41   H        -0.3559   10.1675   16.0397  H     
42   H        -0.1542    9.5166   14.3987  H     
43   H        -0.9294   14.2463   15.0710  H     
44   H        -0.4188   12.9394   16.0056  H     
@<TRIPOS>BOND
     1    1    2 1
     2    1    3 am
     3    1    4 2
     4    1    5 2
     5    2    6 1
     6    6    7 1
     7    7    8 1
     8    8    9 1
     9    9   10 1
    10   10   11 1
    11   11   12 1
    12   12   13 1
    13   13   14 1
    14   14   15 1
    15   15   16 1
    16   16   17 1
    17   17   18 am
    18   17   19 2
    19   17   20 2
    20    3   21 1
    21    3   22 1
    22    6   23 1
    23    6   24 1
    24    7   25 1
    25    7   26 1
    26    8   27 1
    27    8   28 1
    28    9   29 1
    29    9   30 1
    30   10   31 1
    31   10   32 1
    32   11   33 1
    33   11   34 1
    34   12   35 1
    35   12   36 1
    36   13   37 1
    37   13   38 1
    38   14   39 1
    39   14   40 1
    40   15   41 1
    41   15   42 1
    42   18   43 1
    43   18   44 1
@<TRIPOS>PROPERTY_DATA
  Total_Score	| 5.9121
  Crash		| -1.5354
  Polar		| 2.3240
  FragIndex	| 1
  FragRMSD	| 1.171

