@<TRIPOS>MOLECULE
BindingDB_33281
 38 37 0 0 0
SMALL
NO_CHARGES


@<TRIPOS>ATOM
1    S        -6.1877    1.5433   16.7260  S     
2    O        -5.1671    2.4858   15.7644  O     
3    N        -7.5816    2.4138   17.0411  N     
4    O        -6.6590    0.1287   15.9412  O     
5    O        -5.4166    1.1446   18.1754  O     
6    C        -5.3636    2.5908   14.3424  C     
7    C        -4.4068    3.6830   13.7852  C     
8    C        -5.1085    5.0688   13.6489  C     
9    C        -4.1487    6.2806   13.5150  C     
10   C        -3.1964    6.4750   14.7373  C     
11   C        -2.7084    7.9548   14.8771  C     
12   C        -1.1990    8.1183   15.1952  C     
13   C        -0.7440    9.6048   15.2238  C     
14   O        -1.6019   10.3933   14.3713  O     
15   S        -1.2790   12.0176   13.9670  S     
16   N        -2.6706   12.6615   13.2483  N     
17   O        -0.7310   12.9842   15.2629  O     
18   O        -0.0673   12.0901   12.7872  O     
19   H        -8.4228    1.9335   17.1605  H     
20   H        -7.6072    3.3606   16.8112  H     
21   H        -5.1502    1.6318   13.8520  H     
22   H        -6.4161    2.8565   14.1259  H     
23   H        -3.5342    3.7872   14.4449  H     
24   H        -4.0396    3.4020   12.7844  H     
25   H        -5.7256    5.0425   12.7352  H     
26   H        -5.7752    5.2443   14.5050  H     
27   H        -3.5501    6.1762   12.6022  H     
28   H        -4.7892    7.1580   13.3987  H     
29   H        -3.7076    6.1828   15.6605  H     
30   H        -2.3372    5.7980   14.6120  H     
31   H        -2.9232    8.5094   13.9495  H     
32   H        -3.2897    8.4177   15.6828  H     
33   H        -1.0022    7.6509   16.1562  H     
34   H        -0.6385    7.5862   14.4258  H     
35   H        -0.7740    9.9985   16.2611  H     
36   H         0.3110    9.6557   14.8652  H     
37   H        -2.7177   13.6108   13.0279  H     
38   H        -3.3332   12.0646   12.8341  H     
@<TRIPOS>BOND
     1    1    2 1
     2    1    3 am
     3    1    4 2
     4    1    5 2
     5    2    6 1
     6    6    7 1
     7    7    8 1
     8    8    9 1
     9    9   10 1
    10   10   11 1
    11   11   12 1
    12   12   13 1
    13   13   14 1
    14   14   15 1
    15   15   16 am
    16   15   17 2
    17   15   18 2
    18    3   19 1
    19    3   20 1
    20    6   21 1
    21    6   22 1
    22    7   23 1
    23    7   24 1
    24    8   25 1
    25    8   26 1
    26    9   27 1
    27    9   28 1
    28   10   29 1
    29   10   30 1
    30   11   31 1
    31   11   32 1
    32   12   33 1
    33   12   34 1
    34   13   35 1
    35   13   36 1
    36   16   37 1
    37   16   38 1
@<TRIPOS>PROPERTY_DATA
  Total_Score	| 5.7205
  Crash		| -0.9577
  Polar		| 2.8306
  FragIndex	| 1
  FragRMSD	| 1.353

