@<TRIPOS>MOLECULE
BindingDB_50154471
 35 34 0 0 0
SMALL
NO_CHARGES


@<TRIPOS>ATOM
1    S        -6.3994    1.4777   16.9477  S     
2    S         0.5558    9.1595   13.4664  S     
3    O        -6.4575   -0.1090   16.3770  O     
4    O        -5.9510    1.5617   18.5787  O     
5    O         0.0680    9.3091   11.8498  O     
6    O         0.3744   10.6268   14.2765  O     
7    N        -7.9456    2.1235   16.8221  N     
8    N         2.1599    8.6582   13.4633  N     
9    O        -5.3366    2.4382   16.0519  O     
10   O        -0.3735    7.9531   14.2168  O     
11   C        -1.2407    8.1376   15.3512  C     
12   C        -5.3581    2.4882   14.6189  C     
13   C        -4.3868    3.5608   14.0657  C     
14   C        -2.7175    7.9255   14.9282  C     
15   C        -4.1529    6.1490   13.6402  C     
16   C        -3.2157    6.4526   14.8442  C     
17   C        -5.0857    4.9259   13.7836  C     
18   H        -8.0507    3.0823   16.8256  H     
19   H        -8.6586    1.5615   16.5019  H     
20   H         2.6267    8.5538   14.3093  H     
21   H         2.5236    8.2340   12.6690  H     
22   H        -0.9472    7.4209   16.1262  H     
23   H        -1.1226    9.1512   15.7550  H     
24   H        -5.0804    1.5011   14.2282  H     
25   H        -6.3807    2.7040   14.2892  H     
26   H        -3.5789    3.6817   14.7805  H     
27   H        -3.9634    3.1830   13.1348  H     
28   H        -3.3394    8.4266   15.6783  H     
29   H        -2.8872    8.4430   13.9771  H     
30   H        -4.8046    7.0127   13.4679  H     
31   H        -3.5433    6.0339   12.7344  H     
32   H        -2.3525    5.7753   14.8016  H     
33   H        -3.7509    6.2300   15.7701  H     
34   H        -5.6706    4.8161   12.8664  H     
35   H        -5.7933    5.1296   14.5914  H     
@<TRIPOS>BOND
     1    1    3 2
     2    1    4 2
     3    1    7 am
     4    1    9 1
     5    2    5 2
     6    2    6 2
     7    2    8 am
     8    2   10 1
     9    9   12 1
    10   10   11 1
    11   11   14 1
    12   12   13 1
    13   13   17 1
    14   14   16 1
    15   15   16 1
    16   15   17 1
    17    7   18 1
    18    7   19 1
    19    8   20 1
    20    8   21 1
    21   11   22 1
    22   11   23 1
    23   12   24 1
    24   12   25 1
    25   13   26 1
    26   13   27 1
    27   14   28 1
    28   14   29 1
    29   15   30 1
    30   15   31 1
    31   16   32 1
    32   16   33 1
    33   17   34 1
    34   17   35 1
@<TRIPOS>PROPERTY_DATA
  Total_Score	| 4.9740
  Crash		| -1.1910
  Polar		| 2.2160
  FragIndex	| 1
  FragRMSD	| 1.156

