@<TRIPOS>MOLECULE
BindingDB_24636
 23 24 0 0 0
SMALL
NO_CHARGES


@<TRIPOS>ATOM
1    C        29.1071    6.6159   64.0892  C     
2    O        28.6801    7.5444   63.4130  O     
3    N        30.2435    6.7295   64.7727  N     
4    C        31.1303    7.7782   64.8138  C     
5    C        32.5279    9.5311   63.7969  C     
6    C        31.5819    8.4952   63.6741  C     
7    C        31.6815    8.1208   66.0705  C     
8    C        32.6111    9.1652   66.2001  C     
9    C        33.0381    9.8793   65.0633  C     
10   C        28.3281    5.4713   64.1868  C     
11   C        27.0800    5.2559   63.6007  C     
12   C        26.6902    3.9765   63.9611  C     
13   N        28.6272    4.3325   64.8560  N     
14   N        27.6636    3.4686   64.7243  N     
15   H        30.4551    5.9884   65.3653  H     
16   H        32.8618   10.0240   62.9674  H     
17   H        31.2625    8.2372   62.7367  H     
18   H        31.3970    7.6033   66.9117  H     
19   H        33.0044    9.3949   67.1165  H     
20   H        33.7362   10.6205   65.1509  H     
21   H        26.5491    5.9058   63.0169  H     
22   H        25.8190    3.5066   63.6987  H     
23   H        27.6535    2.5701   65.1044  H     
@<TRIPOS>BOND
     1    1    2 2
     2    1    3 am
     3    1   10 1
     4    3    4 1
     5    4    6 2
     6    4    7 1
     7    5    6 1
     8    5    9 2
     9    7    8 2
    10    8    9 1
    11   10   11 1
    12   10   13 2
    13   11   12 2
    14   12   14 1
    15   13   14 1
    16    3   15 1
    17    5   16 1
    18    6   17 1
    19    7   18 1
    20    8   19 1
    21    9   20 1
    22   11   21 1
    23   12   22 1
    24   14   23 1
@<TRIPOS>PROPERTY_DATA
  Total_Score	| 5.1762
  Crash		| -0.2061
  Polar		| 3.0597
  FragIndex	| 1
  FragRMSD	| 0.440

