@<TRIPOS>MOLECULE
BindingDB_24640
 31 32 0 0 0
SMALL
NO_CHARGES


@<TRIPOS>ATOM
1    C        28.2589    5.3631   64.1030  C     
2    C        27.0195    5.1011   63.4911  C     
3    C        26.6709    3.8214   63.9225  C     
4    N        28.5829    4.2652   64.8220  N     
5    N        27.6548    3.3754   64.7054  N     
6    C        29.0717    6.4946   64.0156  C     
7    O        28.7459    7.3944   63.2535  O     
8    N        30.1408    6.6317   64.8045  N     
9    C        31.0180    7.6818   64.8579  C     
10   C        32.3995    9.4302   63.8187  C     
11   C        31.4929    8.3558   63.7079  C     
12   C        31.5052    8.0858   66.1212  C     
13   C        32.4109    9.1651   66.2373  C     
14   C        32.8619    9.8342   65.0829  C     
15   F        33.7080   10.8218   65.1845  F     
16   N        26.3180    5.9523   62.6756  N     
17   C        25.2000    5.7183   61.9912  C     
18   O        24.6368    4.6305   61.9993  O     
19   C        24.6167    6.7362   61.1478  C     
20   O        23.2782    7.0033   61.5675  O     
21   H        25.8228    3.2951   63.7180  H     
22   H        27.6641    2.5022   65.1333  H     
23   H        30.2821    5.9317   65.4612  H     
24   H        32.7222    9.9086   62.9742  H     
25   H        31.1980    8.0570   62.7730  H     
26   H        31.1855    7.6169   66.9742  H     
27   H        32.7346    9.4591   67.1622  H     
28   H        26.6972    6.8360   62.5724  H     
29   H        25.1805    7.6758   61.1688  H     
30   H        24.6005    6.3709   60.1176  H     
31   H        22.9343    7.6769   60.9414  H     
@<TRIPOS>BOND
     1    1    2 1
     2    1    4 2
     3    1    6 1
     4    2    3 2
     5    2   16 1
     6    3    5 1
     7    4    5 1
     8    6    7 2
     9    6    8 am
    10    8    9 1
    11    9   11 2
    12    9   12 1
    13   10   11 1
    14   10   14 2
    15   12   13 2
    16   13   14 1
    17   14   15 1
    18   16   17 am
    19   17   18 2
    20   17   19 1
    21   19   20 1
    22    3   21 1
    23    5   22 1
    24    8   23 1
    25   10   24 1
    26   11   25 1
    27   12   26 1
    28   13   27 1
    29   16   28 1
    30   19   29 1
    31   19   30 1
    32   20   31 1
@<TRIPOS>PROPERTY_DATA
  Total_Score	| 5.8063
  Crash		| -0.3226
  Polar		| 3.0260
  FragIndex	| 1
  FragRMSD	| 0.527

