@<TRIPOS>MOLECULE
BindingDB_24648
 46 48 0 0 0
SMALL
NO_CHARGES


@<TRIPOS>ATOM
1    C        28.2986    5.4609   64.3137  C     
2    C        27.1055    5.2527   63.6066  C     
3    C        26.7698    3.9228   63.8277  C     
4    N        28.6020    4.2872   64.9050  N     
5    N        27.7065    3.3936   64.6260  N     
6    C        29.0741    6.6144   64.4171  C     
7    O        28.6371    7.7090   64.0486  O     
8    N        26.4984    6.2153   62.8462  N     
9    C        25.4277    6.1449   62.0672  C     
10   O        24.7691    5.1118   62.0118  O     
11   C        25.0128    7.2659   61.3248  C     
12   C        25.5269    9.3601   60.1208  C     
13   C        24.1645    9.5871   59.8972  C     
14   C        23.2230    8.6545   60.3530  C     
15   C        25.9521    8.2088   60.8163  C     
16   C        23.6329    7.5055   61.0523  C     
17   F        27.2465    8.0350   60.9183  F     
18   F        22.6849    6.7078   61.4768  F     
19   C        32.4327    9.7000   64.0812  C     
20   C        31.8994   10.5678   65.2534  C     
21   C        31.6922    9.7201   66.5335  C     
22   C        30.7423    8.5300   66.2645  C     
23   C        31.5337    8.4549   63.7999  C     
24   C        31.2412    7.6334   65.0927  C     
25   N        30.3202    6.5489   64.8706  N     
26   N        32.8243   11.6674   65.5675  N     
27   H        25.9639    3.4033   63.4713  H     
28   H        27.7168    2.4748   64.9435  H     
29   H        26.9319    7.0803   62.8740  H     
30   H        26.2094   10.0342   59.7698  H     
31   H        23.8602   10.4215   59.3904  H     
32   H        22.2330    8.8228   60.1706  H     
33   H        32.4891   10.3095   63.1796  H     
34   H        33.4408    9.3683   64.3211  H     
35   H        30.9465   11.0108   64.9529  H     
36   H        32.6523    9.3370   66.8892  H     
37   H        31.2651   10.3461   67.3182  H     
38   H        30.6632    7.9275   67.1760  H     
39   H        29.7515    8.9273   66.0369  H     
40   H        30.5740    8.7503   63.3381  H     
41   H        32.0443    7.8123   63.0798  H     
42   H        32.1852    7.1801   65.4082  H     
43   H        30.6396    5.6648   65.1178  H     
44   H        33.7130   11.2880   65.8953  H     
45   H        32.4159   12.2459   66.3041  H     
46   H        32.9880   12.2445   64.7426  H     
@<TRIPOS>BOND
     1    1    2 1
     2    1    4 2
     3    1    6 1
     4    2    3 2
     5    2    8 1
     6    3    5 1
     7    4    5 1
     8    6    7 2
     9    6   25 am
    10    8    9 am
    11    9   10 2
    12    9   11 1
    13   11   15 2
    14   11   16 1
    15   12   13 2
    16   12   15 1
    17   13   14 1
    18   14   16 2
    19   15   17 1
    20   16   18 1
    21   19   20 1
    22   19   23 1
    23   20   21 1
    24   20   26 1
    25   21   22 1
    26   22   24 1
    27   23   24 1
    28   24   25 1
    29    3   27 1
    30    5   28 1
    31    8   29 1
    32   12   30 1
    33   13   31 1
    34   14   32 1
    35   19   33 1
    36   19   34 1
    37   20   35 1
    38   21   36 1
    39   21   37 1
    40   22   38 1
    41   22   39 1
    42   23   40 1
    43   23   41 1
    44   24   42 1
    45   25   43 1
    46   26   44 1
    47   26   45 1
    48   26   46 1
@<TRIPOS>PROPERTY_DATA
  Total_Score	| 6.0061
  Crash		| -2.1607
  Polar		| 2.8056
  FragIndex	| 1
  FragRMSD	| 0.533

