@<TRIPOS>MOLECULE
BindingDB_24644
 37 39 0 0 0
SMALL
NO_CHARGES


@<TRIPOS>ATOM
1    C        28.3958    5.3885   64.1312  C     
2    C        27.2681    5.0946   63.3522  C     
3    C        26.8290    3.8518   63.7912  C     
4    N        28.5764    4.3443   64.9652  N     
5    N        27.6562    3.4583   64.7630  N     
6    C        29.1992    6.5253   64.0745  C     
7    O        28.8506    7.4665   63.3685  O     
8    N        30.2940    6.6276   64.8271  N     
9    C        31.1749    7.6760   64.8988  C     
10   C        32.5006    9.4869   63.9114  C     
11   C        31.6116    8.4066   63.7647  C     
12   C        31.6933    8.0176   66.1653  C     
13   C        32.5779    9.1011   66.3129  C     
14   C        32.9852    9.8434   65.1849  C     
15   F        33.8116   10.8441   65.3201  F     
16   N        26.7972    5.8792   62.3414  N     
17   C        25.6588    5.8062   61.6648  C     
18   O        24.7977    4.9780   61.9302  O     
19   C        25.3977    6.8216   60.7445  C     
20   C        24.0134    8.7250   60.0264  C     
21   C        25.0024    9.1066   59.1002  C     
22   C        26.1706    8.3325   58.9567  C     
23   C        24.1890    7.5750   60.8189  C     
24   C        26.3726    7.2076   59.7798  C     
25   F        23.2378    7.2713   61.6668  F     
26   F        27.4819    6.5253   59.6149  F     
27   H        26.0371    3.3128   63.4381  H     
28   H        27.5821    2.6143   65.2354  H     
29   H        30.4422    5.9097   65.4640  H     
30   H        32.8078   10.0043   63.0852  H     
31   H        31.2957    8.1458   62.8269  H     
32   H        31.4077    7.4943   66.9994  H     
33   H        32.9287    9.3450   67.2378  H     
34   H        27.3653    6.6232   62.1039  H     
35   H        23.1620    9.2874   60.1199  H     
36   H        24.8648    9.9374   58.5193  H     
37   H        26.8794    8.6094   58.2721  H     
@<TRIPOS>BOND
     1    1    2 1
     2    1    4 2
     3    1    6 1
     4    2    3 2
     5    2   16 1
     6    3    5 1
     7    4    5 1
     8    6    7 2
     9    6    8 am
    10    8    9 1
    11    9   11 2
    12    9   12 1
    13   10   11 1
    14   10   14 2
    15   12   13 2
    16   13   14 1
    17   14   15 1
    18   16   17 am
    19   17   18 2
    20   17   19 1
    21   19   23 2
    22   19   24 1
    23   20   21 2
    24   20   23 1
    25   21   22 1
    26   22   24 2
    27   23   25 1
    28   24   26 1
    29    3   27 1
    30    5   28 1
    31    8   29 1
    32   10   30 1
    33   11   31 1
    34   12   32 1
    35   13   33 1
    36   16   34 1
    37   20   35 1
    38   21   36 1
    39   22   37 1
@<TRIPOS>PROPERTY_DATA
  Total_Score	| 5.8782
  Crash		| -1.4246
  Polar		| 2.8667
  FragIndex	| 1
  FragRMSD	| 0.533

