@<TRIPOS>MOLECULE
BindingDB_24638
 25 26 0 0 0
SMALL
NO_CHARGES


@<TRIPOS>ATOM
1    C        28.3007    5.4767   64.1402  C     
2    C        27.0381    5.2423   63.5841  C     
3    C        26.6878    3.9569   63.9599  C     
4    N        28.6345    4.3532   64.8175  N     
5    N        27.6871    3.4749   64.7058  N     
6    C        29.0953    6.6131   64.0435  C     
7    N        26.2564    6.0445   62.8453  N     
8    O        28.7108    7.5484   63.3483  O     
9    N        30.2139    6.7072   64.7519  N     
10   C        31.0976    7.7509   64.8133  C     
11   C        32.6414    9.0710   66.1831  C     
12   C        31.6993    8.0326   66.0582  C     
13   C        31.4863    8.5154   63.6852  C     
14   C        32.4490    9.5351   63.8068  C     
15   C        33.0195    9.8252   65.0584  C     
16   F        33.9141   10.7719   65.1710  F     
17   H        25.8284    3.4572   63.7201  H     
18   H        27.6976    2.5833   65.0954  H     
19   H        25.3887    5.7245   62.5545  H     
20   H        26.5391    6.9414   62.6226  H     
21   H        30.3967    5.9698   65.3621  H     
22   H        33.0592    9.2652   67.0948  H     
23   H        31.4409    7.4921   66.8860  H     
24   H        31.0990    8.3113   62.7647  H     
25   H        32.7416   10.0539   62.9740  H     
@<TRIPOS>BOND
     1    1    2 1
     2    1    4 2
     3    1    6 1
     4    2    3 2
     5    2    7 1
     6    3    5 1
     7    4    5 1
     8    6    8 2
     9    6    9 am
    10    9   10 1
    11   10   12 2
    12   10   13 1
    13   11   12 1
    14   11   15 2
    15   13   14 2
    16   14   15 1
    17   15   16 1
    18    3   17 1
    19    5   18 1
    20    7   19 1
    21    7   20 1
    22    9   21 1
    23   11   22 1
    24   12   23 1
    25   13   24 1
    26   14   25 1
@<TRIPOS>PROPERTY_DATA
  Total_Score	| 5.1673
  Crash		| -0.2155
  Polar		| 2.9381
  FragIndex	| 1
  FragRMSD	| 0.477

