@<TRIPOS>MOLECULE
BindingDB_24649
 43 45 0 0 0
SMALL
NO_CHARGES


@<TRIPOS>ATOM
1    C        28.1326    5.2941   64.4192  C     
2    C        26.9988    4.9473   63.6685  C     
3    C        26.8133    3.5949   63.9104  C     
4    N        28.5765    4.1684   65.0164  N     
5    N        27.8004    3.1820   64.7109  N     
6    C        28.6669    6.5433   64.6613  C     
7    O        27.9035    7.4980   64.6172  O     
8    N        26.1228    5.6284   62.8721  N     
9    C        26.2883    6.7339   62.1483  C     
10   O        27.4294    7.1609   62.0207  O     
11   C        25.2249    7.3798   61.4715  C     
12   C        22.8337    7.5592   60.8630  C     
13   C        23.0732    8.7554   60.1720  C     
14   C        24.3769    9.2669   60.1035  C     
15   C        23.8804    6.8928   61.5253  C     
16   C        25.4403    8.5868   60.7287  C     
17   F        23.5060    5.8492   62.2240  F     
18   F        26.6198    9.1384   60.5790  F     
19   C        32.4706    9.4729   64.2535  C     
20   C        32.1580    9.3000   66.7225  C     
21   C        31.3494    7.9854   66.5603  C     
22   C        31.6588    8.1682   64.0324  C     
23   C        30.6321    7.9552   65.1815  C     
24   N        29.9437    6.7037   64.9960  N     
25   N        33.1022    9.4989   65.5947  N     
26   H        26.0645    3.0066   63.5411  H     
27   H        27.9004    2.2725   65.0349  H     
28   H        25.2740    5.1814   62.7653  H     
29   H        21.8819    7.1917   60.9118  H     
30   H        22.3024    9.2468   59.7130  H     
31   H        24.5476   10.1347   59.5843  H     
32   H        33.2511    9.5520   63.4975  H     
33   H        31.8164   10.3432   64.1428  H     
34   H        31.4722   10.1547   66.7769  H     
35   H        32.7265    9.2642   67.6568  H     
36   H        32.0275    7.1299   66.6513  H     
37   H        30.6117    7.9179   67.3634  H     
38   H        31.1325    8.2273   63.0751  H     
39   H        32.3456    7.3178   63.9903  H     
40   H        29.9289    8.7968   65.1566  H     
41   H        30.4764    5.8995   65.0931  H     
42   H        33.8124    8.7651   65.6406  H     
43   H        33.5661   10.4030   65.7144  H     
@<TRIPOS>BOND
     1    1    2 1
     2    1    4 2
     3    1    6 1
     4    2    3 2
     5    2    8 1
     6    3    5 1
     7    4    5 1
     8    6    7 2
     9    6   24 am
    10    8    9 am
    11    9   10 2
    12    9   11 1
    13   11   15 2
    14   11   16 1
    15   12   13 2
    16   12   15 1
    17   13   14 1
    18   14   16 2
    19   15   17 1
    20   16   18 1
    21   19   22 1
    22   19   25 1
    23   20   21 1
    24   20   25 1
    25   21   23 1
    26   22   23 1
    27   23   24 1
    28    3   26 1
    29    5   27 1
    30    8   28 1
    31   12   29 1
    32   13   30 1
    33   14   31 1
    34   19   32 1
    35   19   33 1
    36   20   34 1
    37   20   35 1
    38   21   36 1
    39   21   37 1
    40   22   38 1
    41   22   39 1
    42   23   40 1
    43   24   41 1
    44   25   42 1
    45   25   43 1
@<TRIPOS>PROPERTY_DATA
  Total_Score	| 7.4076
  Crash		| -2.3162
  Polar		| 3.9973
  FragIndex	| 1
  FragRMSD	| 1.301

