@<TRIPOS>MOLECULE
BindingDB_24645
 37 39 0 0 0
SMALL
NO_CHARGES


@<TRIPOS>ATOM
1    C        28.0641    5.4406   64.4991  C     
2    C        26.9853    5.1650   63.6498  C     
3    C        26.7247    3.8095   63.8187  C     
4    N        28.4025    4.2803   65.1012  N     
5    N        27.6100    3.3384   64.7033  N     
6    C        28.6889    6.6613   64.7218  C     
7    O        28.1647    7.6869   64.3080  O     
8    N        29.8474    6.7244   65.3656  N     
9    N        26.4071    6.0862   62.8282  N     
10   C        25.3776    5.9876   61.9980  C     
11   O        24.7221    4.9559   61.9313  O     
12   C        24.9989    7.1080   61.2472  C     
13   C        23.2534    8.5766   60.3222  C     
14   C        24.2294    9.4644   59.8453  C     
15   C        25.5879    9.1728   60.0332  C     
16   C        23.6273    7.4046   61.0087  C     
17   C        25.9730    8.0074   60.7224  C     
18   F        22.6604    6.6484   61.4641  F     
19   F        27.2595    7.7819   60.8201  F     
20   C        30.6148    7.9108   65.6035  C     
21   C        31.7667    8.0041   64.5773  C     
22   C        31.3910    7.9825   63.0836  C     
23   C        31.9474    9.2683   63.7127  C     
24   H        26.0101    3.2495   63.3526  H     
25   H        27.6527    2.4148   65.0004  H     
26   H        30.2414    5.8846   65.6563  H     
27   H        26.8163    6.9615   62.8590  H     
28   H        22.2676    8.7929   60.1675  H     
29   H        23.9516   10.3112   59.3442  H     
30   H        26.2954    9.8118   59.6611  H     
31   H        30.0028    8.8178   65.5819  H     
32   H        31.0443    7.8350   66.6046  H     
33   H        32.6785    7.4486   64.8014  H     
34   H        32.0683    7.4137   62.4504  H     
35   H        30.3335    8.0206   62.8182  H     
36   H        31.2182   10.0726   63.8406  H     
37   H        32.9737    9.5194   63.4402  H     
@<TRIPOS>BOND
     1    1    2 1
     2    1    4 2
     3    1    6 1
     4    2    3 2
     5    2    9 1
     6    3    5 1
     7    4    5 1
     8    6    7 2
     9    6    8 am
    10    8   20 1
    11    9   10 am
    12   10   11 2
    13   10   12 1
    14   12   16 2
    15   12   17 1
    16   13   14 2
    17   13   16 1
    18   14   15 1
    19   15   17 2
    20   16   18 1
    21   17   19 1
    22   20   21 1
    23   21   22 1
    24   21   23 1
    25   22   23 1
    26    3   24 1
    27    5   25 1
    28    8   26 1
    29    9   27 1
    30   13   28 1
    31   14   29 1
    32   15   30 1
    33   20   31 1
    34   20   32 1
    35   21   33 1
    36   22   34 1
    37   22   35 1
    38   23   36 1
    39   23   37 1
@<TRIPOS>PROPERTY_DATA
  Total_Score	| 6.0518
  Crash		| -1.8313
  Polar		| 3.1854
  FragIndex	| 1
  FragRMSD	| 0.825

