@<TRIPOS>MOLECULE
BindingDB_24650
 43 45 0 0 0
SMALL
NO_CHARGES


@<TRIPOS>ATOM
1    C        28.1346    5.2994   64.3143  C     
2    C        26.9120    4.9248   63.7420  C     
3    C        26.7272    3.6030   64.1071  C     
4    N        28.6299    4.2125   64.9415  N     
5    N        27.8007    3.2270   64.8103  N     
6    C        28.6810    6.5657   64.3933  C     
7    O        27.9174    7.5122   64.2277  O     
8    N        25.9818    5.6400   63.0468  N     
9    C        26.1877    6.5264   62.0713  C     
10   O        27.3192    6.6910   61.6373  O     
11   C        25.1355    7.2367   61.4744  C     
12   C        24.3095    9.2494   60.3088  C     
13   C        23.0177    8.7113   60.2671  C     
14   C        22.7709    7.4484   60.8234  C     
15   C        25.3605    8.5220   60.9010  C     
16   C        23.8126    6.7118   61.4152  C     
17   F        26.5309    9.1085   60.9400  F     
18   F        23.4957    5.5234   61.8710  F     
19   C        32.5558    9.4029   65.7607  C     
20   C        30.8689    8.6801   63.4373  C     
21   C        31.8760    8.0039   65.6767  C     
22   C        30.5672    8.0762   64.8413  C     
23   N        29.9442    6.7806   64.7404  N     
24   C        32.7672   10.0225   64.3482  C     
25   N        31.5154   10.0128   63.5525  N     
26   H        25.9220    3.0196   63.8893  H     
27   H        27.9250    2.3438   65.1886  H     
28   H        25.0641    5.4508   63.2832  H     
29   H        24.4800   10.1753   59.9093  H     
30   H        22.2573    9.2318   59.8250  H     
31   H        21.8268    7.0565   60.7850  H     
32   H        31.9281   10.0726   66.3531  H     
33   H        33.5197    9.3169   66.2705  H     
34   H        31.5148    8.0118   62.8660  H     
35   H        29.9388    8.8018   62.8798  H     
36   H        32.5625    7.2931   65.2136  H     
37   H        31.6473    7.6485   66.6884  H     
38   H        29.8915    8.7492   65.3769  H     
39   H        30.4904    6.0092   64.9496  H     
40   H        33.1092   11.0560   64.4517  H     
41   H        33.5401    9.4768   63.8087  H     
42   H        31.7150   10.3591   62.6058  H     
43   H        30.8511   10.6457   63.9982  H     
@<TRIPOS>BOND
     1    1    2 1
     2    1    4 2
     3    1    6 1
     4    2    3 2
     5    2    8 1
     6    3    5 1
     7    4    5 1
     8    6    7 2
     9    6   23 am
    10    8    9 am
    11    9   10 2
    12    9   11 1
    13   11   15 2
    14   11   16 1
    15   12   13 2
    16   12   15 1
    17   13   14 1
    18   14   16 2
    19   15   17 1
    20   16   18 1
    21   19   21 1
    22   19   24 1
    23   20   22 1
    24   20   25 1
    25   21   22 1
    26   22   23 1
    27   24   25 1
    28    3   26 1
    29    5   27 1
    30    8   28 1
    31   12   29 1
    32   13   30 1
    33   14   31 1
    34   19   32 1
    35   19   33 1
    36   20   34 1
    37   20   35 1
    38   21   36 1
    39   21   37 1
    40   22   38 1
    41   23   39 1
    42   24   40 1
    43   24   41 1
    44   25   42 1
    45   25   43 1
@<TRIPOS>PROPERTY_DATA
  Total_Score	| 6.8889
  Crash		| -2.5828
  Polar		| 4.4537
  FragIndex	| 1
  FragRMSD	| 1.193

