@<TRIPOS>MOLECULE
BindingDB_24642
 43 45 0 0 0
SMALL
NO_CHARGES


@<TRIPOS>ATOM
1    C        28.3598    5.2605   64.3237  C     
2    C        27.1137    5.0462   63.6333  C     
3    C        26.7477    3.7827   63.9233  C     
4    N        28.6281    4.0574   64.9659  N     
5    N        27.6948    3.2555   64.7131  N     
6    C        29.2592    6.4382   64.3597  C     
7    O        28.6824    7.5416   63.5387  O     
8    N        30.3153    6.5621   65.0877  N     
9    C        30.9762    7.7943   64.8550  C     
10   C        31.7673    9.7181   66.0700  C     
11   C        31.0488    8.5025   66.0116  C     
12   C        31.7233    8.2281   63.6921  C     
13   C        32.4158    9.4550   63.7499  C     
14   C        32.4573   10.1937   64.9412  C     
15   F        33.1440   11.3009   64.9815  F     
16   N        26.1125    5.7400   62.7206  N     
17   C        26.3308    6.8592   62.1367  C     
18   O        27.5044    7.3070   62.4870  O     
19   C        25.2310    7.6588   61.3228  C     
20   C        26.2621    7.1781   59.0425  C     
21   C        26.3944    8.6910   58.7475  C     
22   C        26.6092    9.5286   60.0106  C     
23   C        25.5240    9.1619   61.0921  C     
24   C        25.1443    6.8470   60.0523  C     
25   H        25.9049    3.1983   63.6609  H     
26   H        27.7549    2.3586   65.0750  H     
27   H        30.4161    5.9908   65.8268  H     
28   H        31.7929   10.2832   66.9367  H     
29   H        30.5243    8.1909   66.8797  H     
30   H        31.7045    7.7010   62.8460  H     
31   H        32.8579    9.7781   62.9103  H     
32   H        25.3040    5.1795   62.6084  H     
33   H        24.4304    7.5340   62.0040  H     
34   H        26.0143    6.6743   58.1051  H     
35   H        27.2063    6.7695   59.3939  H     
36   H        27.2128    8.8611   58.0594  H     
37   H        25.4949    9.0477   58.2675  H     
38   H        27.6678    9.4560   60.2648  H     
39   H        26.5246   10.5761   59.7985  H     
40   H        24.5809    9.5509   60.7640  H     
41   H        25.7867    9.6735   62.0414  H     
42   H        25.0852    5.7786   60.2014  H     
43   H        24.2107    7.1763   59.6838  H     
@<TRIPOS>BOND
     1    1    2 1
     2    1    4 2
     3    1    6 1
     4    2    3 2
     5    2   16 1
     6    3    5 1
     7    4    5 1
     8    6    7 2
     9    6    8 am
    10    8    9 1
    11    9   11 2
    12    9   12 1
    13   10   11 1
    14   10   14 2
    15   12   13 2
    16   13   14 1
    17   14   15 1
    18   16   17 am
    19   17   18 2
    20   17   19 1
    21   19   23 1
    22   19   24 1
    23   20   21 1
    24   20   24 1
    25   21   22 1
    26   22   23 1
    27    3   25 1
    28    5   26 1
    29    8   27 1
    30   10   28 1
    31   11   29 1
    32   12   30 1
    33   13   31 1
    34   16   32 1
    35   19   33 1
    36   20   34 1
    37   20   35 1
    38   21   36 1
    39   21   37 1
    40   22   38 1
    41   22   39 1
    42   23   40 1
    43   23   41 1
    44   24   42 1
    45   24   43 1
@<TRIPOS>PROPERTY_DATA
  Total_Score	| 6.0769
  Crash		| -1.8962
  Polar		| 2.9733
  FragIndex	| 1
  FragRMSD	| 1.110

