@<TRIPOS>MOLECULE
BindingDB_24646
 43 45 0 0 0
SMALL
NO_CHARGES


@<TRIPOS>ATOM
1    C        28.2591    5.3437   64.1795  C     
2    C        27.0794    5.0800   63.4731  C     
3    C        26.7191    3.7882   63.8330  C     
4    N        28.5537    4.2373   64.8982  N     
5    N        27.6406    3.3481   64.6963  N     
6    C        29.0260    6.5084   64.1779  C     
7    O        28.5764    7.5423   63.6952  O     
8    N        30.2495    6.4927   64.6883  N     
9    N        26.4923    5.9519   62.6097  N     
10   C        25.4014    5.8363   61.8672  C     
11   O        24.6910    4.8397   61.9382  O     
12   C        25.0173    6.9133   61.0581  C     
13   C        23.3375    8.5710   60.3587  C     
14   C        24.3019    9.2567   59.6034  C     
15   C        25.6064    8.7504   59.5214  C     
16   C        23.6820    7.4014   61.0620  C     
17   C        25.9649    7.5894   60.2338  C     
18   F        22.7421    6.8490   61.7871  F     
19   F        27.1906    7.1495   60.0851  F     
20   C        31.1753    7.5810   64.8485  C     
21   C        31.7199    9.6691   66.2747  C     
22   C        31.8541   10.5204   64.9854  C     
23   C        32.3610    9.6457   63.8023  C     
24   C        31.4430    8.4239   63.5521  C     
25   C        30.7575    8.4768   66.0548  C     
26   H        25.9118    3.2479   63.5122  H     
27   H        27.6226    2.4714   65.1054  H     
28   H        30.5422    5.6488   65.0566  H     
29   H        26.9563    6.7975   62.5243  H     
30   H        22.3898    8.9411   60.4017  H     
31   H        24.0467   10.1068   59.0987  H     
32   H        26.3050    9.2363   58.9536  H     
33   H        32.1396    7.1268   65.1252  H     
34   H        32.7072    9.2962   66.5755  H     
35   H        31.3395   10.3032   67.0875  H     
36   H        30.8796   10.9606   64.7344  H     
37   H        32.5523   11.3418   65.1618  H     
38   H        32.4068   10.2621   62.9004  H     
39   H        33.3828    9.3084   64.0224  H     
40   H        31.9109    7.7752   62.8082  H     
41   H        30.5046    8.7849   63.1246  H     
42   H        29.7513    8.8672   65.8891  H     
43   H        30.7352    7.8671   66.9667  H     
@<TRIPOS>BOND
     1    1    2 1
     2    1    4 2
     3    1    6 1
     4    2    3 2
     5    2    9 1
     6    3    5 1
     7    4    5 1
     8    6    7 2
     9    6    8 am
    10    8   20 1
    11    9   10 am
    12   10   11 2
    13   10   12 1
    14   12   16 2
    15   12   17 1
    16   13   14 2
    17   13   16 1
    18   14   15 1
    19   15   17 2
    20   16   18 1
    21   17   19 1
    22   20   24 1
    23   20   25 1
    24   21   22 1
    25   21   25 1
    26   22   23 1
    27   23   24 1
    28    3   26 1
    29    5   27 1
    30    8   28 1
    31    9   29 1
    32   13   30 1
    33   14   31 1
    34   15   32 1
    35   20   33 1
    36   21   34 1
    37   21   35 1
    38   22   36 1
    39   22   37 1
    40   23   38 1
    41   23   39 1
    42   24   40 1
    43   24   41 1
    44   25   42 1
    45   25   43 1
@<TRIPOS>PROPERTY_DATA
  Total_Score	| 6.3223
  Crash		| -1.9743
  Polar		| 2.9471
  FragIndex	| 1
  FragRMSD	| 0.560

