@<TRIPOS>MOLECULE
BindingDB_24651
 43 45 0 0 0
SMALL
NO_CHARGES


@<TRIPOS>ATOM
1    C        28.3468    5.3946   64.2225  C     
2    C        27.2673    5.0694   63.3920  C     
3    C        26.8668    3.8016   63.7895  C     
4    N        28.5653    4.3338   65.0291  N     
5    N        27.6918    3.4117   64.7675  N     
6    C        29.0267    6.6060   64.2690  C     
7    O        28.6429    7.5563   63.5934  O     
8    N        26.7859    5.8639   62.3999  N     
9    C        25.6356    5.7986   61.7517  C     
10   O        24.7797    4.9482   61.9997  O     
11   C        25.3497    6.8196   60.8617  C     
12   C        23.9035    8.6832   60.2036  C     
13   C        24.9044    9.1610   59.3340  C     
14   C        26.1093    8.4505   59.1952  C     
15   C        24.1046    7.4939   60.9300  C     
16   C        26.3412    7.2891   59.9559  C     
17   F        23.1468    7.0689   61.7162  F     
18   F        27.4950    6.6782   59.8212  F     
19   C        32.5467    9.6237   64.4952  C     
20   C        31.4271    8.0269   66.7290  C     
21   C        31.7337    8.3342   64.2050  C     
22   C        30.7116    8.0381   65.3449  C     
23   N        30.0302    6.7859   65.1229  N     
24   C        32.2587    9.3240   66.9478  C     
25   N        33.1981    9.5514   65.8238  N     
26   F        24.7132   10.2543   58.6488  F     
27   H        26.0875    3.2597   63.4196  H     
28   H        27.6408    2.5538   65.2118  H     
29   H        27.3461    6.6212   62.1636  H     
30   H        23.0184    9.1924   60.2931  H     
31   H        26.8348    8.7986   58.5628  H     
32   H        33.3131    9.7408   63.7238  H     
33   H        31.8857   10.4932   64.4504  H     
34   H        30.6826    7.9556   67.5271  H     
35   H        32.0902    7.1578   66.8041  H     
36   H        31.2060    8.4633   63.2543  H     
37   H        32.4246    7.4880   64.0921  H     
38   H        29.9692    8.8523   65.3801  H     
39   H        30.2938    6.0370   65.6832  H     
40   H        31.5962   10.1907   67.0668  H     
41   H        32.8489    9.2255   67.8633  H     
42   H        33.8649    8.7765   65.8130  H     
43   H        33.7108   10.4264   65.9840  H     
@<TRIPOS>BOND
     1    1    2 1
     2    1    4 2
     3    1    6 1
     4    2    3 2
     5    2    8 1
     6    3    5 1
     7    4    5 1
     8    6    7 2
     9    6   23 am
    10    8    9 am
    11    9   10 2
    12    9   11 1
    13   11   15 2
    14   11   16 1
    15   12   13 2
    16   12   15 1
    17   13   14 1
    18   13   26 1
    19   14   16 2
    20   15   17 1
    21   16   18 1
    22   19   21 1
    23   19   25 1
    24   20   22 1
    25   20   24 1
    26   21   22 1
    27   22   23 1
    28   24   25 1
    29    3   27 1
    30    5   28 1
    31    8   29 1
    32   12   30 1
    33   14   31 1
    34   19   32 1
    35   19   33 1
    36   20   34 1
    37   20   35 1
    38   21   36 1
    39   21   37 1
    40   22   38 1
    41   23   39 1
    42   24   40 1
    43   24   41 1
    44   25   42 1
    45   25   43 1
@<TRIPOS>PROPERTY_DATA
  Total_Score	| 7.3703
  Crash		| -1.3922
  Polar		| 3.9636
  FragIndex	| 1
  FragRMSD	| 0.596

