@<TRIPOS>MOLECULE
BindingDB_24643
 37 39 0 0 0
SMALL
NO_CHARGES


@<TRIPOS>ATOM
1    C        28.0481    5.2949   64.2298  C     
2    C        26.7735    4.9738   63.7433  C     
3    C        26.5180    3.6697   64.1223  C     
4    N        28.5002    4.1721   64.8338  N     
5    N        27.6053    3.2372   64.7655  N     
6    C        28.7514    6.4995   64.1068  C     
7    O        28.2479    7.4548   63.5114  O     
8    N        29.9583    6.5696   64.6644  N     
9    C        30.8656    7.5936   64.6975  C     
10   C        32.2971    9.3124   63.6887  C     
11   C        31.3643    8.2638   63.5549  C     
12   C        31.3644    7.9659   65.9654  C     
13   C        32.2906    9.0169   66.1017  C     
14   C        32.7544    9.6987   64.9623  C     
15   F        33.6134   10.6749   65.0871  F     
16   N        25.9656    5.7029   62.9388  N     
17   C        26.3770    6.2880   61.8199  C     
18   O        27.5146    6.0146   61.4412  O     
19   C        25.6518    7.3278   61.2141  C     
20   C        23.5170    8.3008   60.4471  C     
21   C        24.1360    9.5493   60.2629  C     
22   C        25.5125    9.6908   60.5082  C     
23   C        26.2601    8.5938   60.9783  C     
24   C        24.2663    7.2035   60.9124  C     
25   H        25.6894    3.1132   63.9003  H     
26   H        27.7081    2.3335   65.1009  H     
27   H        30.2218    5.7833   65.1761  H     
28   H        32.6442    9.7929   62.8559  H     
29   H        31.0679    7.9829   62.6169  H     
30   H        31.0407    7.4807   66.8082  H     
31   H        32.6288    9.2800   67.0306  H     
32   H        25.0374    5.7856   63.2047  H     
33   H        22.5188    8.1901   60.2528  H     
34   H        23.5882   10.3527   59.9441  H     
35   H        25.9702   10.5971   60.3655  H     
36   H        27.2525    8.7485   61.1825  H     
37   H        23.7687    6.3230   61.0557  H     
@<TRIPOS>BOND
     1    1    2 1
     2    1    4 2
     3    1    6 1
     4    2    3 2
     5    2   16 1
     6    3    5 1
     7    4    5 1
     8    6    7 2
     9    6    8 am
    10    8    9 1
    11    9   11 2
    12    9   12 1
    13   10   11 1
    14   10   14 2
    15   12   13 2
    16   13   14 1
    17   14   15 1
    18   16   17 am
    19   17   18 2
    20   17   19 1
    21   19   23 1
    22   19   24 2
    23   20   21 2
    24   20   24 1
    25   21   22 1
    26   22   23 2
    27    3   25 1
    28    5   26 1
    29    8   27 1
    30   10   28 1
    31   11   29 1
    32   12   30 1
    33   13   31 1
    34   16   32 1
    35   20   33 1
    36   21   34 1
    37   22   35 1
    38   23   36 1
    39   24   37 1
@<TRIPOS>PROPERTY_DATA
  Total_Score	| 5.8652
  Crash		| -1.2989
  Polar		| 3.0700
  FragIndex	| 1
  FragRMSD	| 1.048

