@<TRIPOS>MOLECULE
BindingDB_24639
 30 31 0 0 0
SMALL
NO_CHARGES


@<TRIPOS>ATOM
1    C        28.1744    5.3002   64.1398  C     
2    C        26.9174    5.0448   63.5475  C     
3    C        26.6093    3.7618   63.9940  C     
4    N        28.5229    4.2159   64.8642  N     
5    N        27.5991    3.3216   64.7746  N     
6    C        29.0186    6.3841   64.0336  C     
7    O        28.6943    7.2404   63.2419  O     
8    N        30.1172    6.5379   64.7707  N     
9    C        30.9918    7.6003   64.7733  C     
10   C        32.2819    9.3956   63.6942  C     
11   C        31.4308    8.2778   63.6067  C     
12   C        31.4891    8.0341   66.0231  C     
13   C        32.3459    9.1488   66.1127  C     
14   C        32.7368    9.8376   64.9489  C     
15   F        33.5262   10.8749   65.0281  F     
16   N        25.9899    5.6341   62.7174  N     
17   C        25.7973    6.8260   62.1509  C     
18   C        24.6091    6.9730   61.3377  C     
19   O        26.5083    7.8145   62.2708  O     
20   H        25.7665    3.2256   63.7727  H     
21   H        27.6254    2.4491   65.2008  H     
22   H        30.2851    5.8542   65.4385  H     
23   H        32.5720    9.8818   62.8410  H     
24   H        31.1441    7.9581   62.6794  H     
25   H        31.2066    7.5557   66.8838  H     
26   H        32.6814    9.4577   67.0281  H     
27   H        25.2733    5.0185   62.4946  H     
28   H        24.6236    6.2427   60.5278  H     
29   H        24.5321    7.9696   60.8949  H     
30   H        23.7229    6.8036   61.9510  H     
@<TRIPOS>BOND
     1    1    2 1
     2    1    4 2
     3    1    6 1
     4    2    3 2
     5    2   16 1
     6    3    5 1
     7    4    5 1
     8    6    7 2
     9    6    8 am
    10    8    9 1
    11    9   11 2
    12    9   12 1
    13   10   11 1
    14   10   14 2
    15   12   13 2
    16   13   14 1
    17   14   15 1
    18   16   17 am
    19   17   18 1
    20   17   19 2
    21    3   20 1
    22    5   21 1
    23    8   22 1
    24   10   23 1
    25   11   24 1
    26   12   25 1
    27   13   26 1
    28   16   27 1
    29   18   28 1
    30   18   29 1
    31   18   30 1
@<TRIPOS>PROPERTY_DATA
  Total_Score	| 5.9479
  Crash		| -0.3012
  Polar		| 3.0886
  FragIndex	| 1
  FragRMSD	| 1.047

