@<TRIPOS>MOLECULE
BindingDB_24641
 40 42 0 0 0
SMALL
NO_CHARGES


@<TRIPOS>ATOM
1    C        28.3240    5.3680   64.1301  C     
2    C        27.1169    5.0911   63.4675  C     
3    C        26.7355    3.8242   63.8998  C     
4    N        28.5993    4.2880   64.8912  N     
5    N        27.6738    3.3956   64.7491  N     
6    C        29.1043    6.5308   64.0628  C     
7    O        28.7045    7.4734   63.3847  O     
8    N        30.2421    6.6500   64.7498  N     
9    C        31.1135    7.7072   64.7858  C     
10   C        32.4305    9.5020   63.7206  C     
11   C        31.5236    8.4281   63.6343  C     
12   C        31.6691    8.0818   66.0351  C     
13   C        32.5613    9.1664   66.1315  C     
14   C        32.9452    9.8880   64.9796  C     
15   F        33.7738   10.8932   65.0642  F     
16   N        26.4962    5.9429   62.6082  N     
17   C        25.3360    5.8266   61.9831  C     
18   O        24.6540    4.8114   62.0529  O     
19   C        24.7713    6.9430   61.2503  C     
20   C        25.6877    8.0467   60.8055  C     
21   C        26.9057    9.2727   59.0421  C     
22   C        27.3738   10.1899   59.9969  C     
23   C        27.0182   10.0415   61.3542  C     
24   C        26.1753    8.9816   61.7525  C     
25   C        26.0522    8.2109   59.4367  C     
26   H        25.8947    3.3075   63.6392  H     
27   H        27.6511    2.5312   65.1845  H     
28   H        30.4456    5.9245   65.3529  H     
29   H        32.7095   10.0125   62.8732  H     
30   H        31.1863    8.1622   62.6985  H     
31   H        31.4148    7.5803   66.8757  H     
32   H        32.9368    9.4430   67.0441  H     
33   H        26.9759    6.7591   62.4227  H     
34   H        24.2559    6.5194   60.3840  H     
35   H        23.9958    7.4157   61.8713  H     
36   H        27.1756    9.3577   58.0613  H     
37   H        27.9741   10.9662   59.7040  H     
38   H        27.3895   10.6921   62.0487  H     
39   H        25.8952    8.9063   62.7300  H     
40   H        25.7124    7.5560   58.7264  H     
@<TRIPOS>BOND
     1    1    2 1
     2    1    4 2
     3    1    6 1
     4    2    3 2
     5    2   16 1
     6    3    5 1
     7    4    5 1
     8    6    7 2
     9    6    8 am
    10    8    9 1
    11    9   11 2
    12    9   12 1
    13   10   11 1
    14   10   14 2
    15   12   13 2
    16   13   14 1
    17   14   15 1
    18   16   17 am
    19   17   18 2
    20   17   19 1
    21   19   20 1
    22   20   24 2
    23   20   25 1
    24   21   22 1
    25   21   25 2
    26   22   23 2
    27   23   24 1
    28    3   26 1
    29    5   27 1
    30    8   28 1
    31   10   29 1
    32   11   30 1
    33   12   31 1
    34   13   32 1
    35   16   33 1
    36   19   34 1
    37   19   35 1
    38   21   36 1
    39   22   37 1
    40   23   38 1
    41   24   39 1
    42   25   40 1
@<TRIPOS>PROPERTY_DATA
  Total_Score	| 6.6491
  Crash		| -0.7643
  Polar		| 3.0776
  FragIndex	| 1
  FragRMSD	| 0.468

