@<TRIPOS>MOLECULE
BindingDB_24647
 44 46 0 0 0
SMALL
NO_CHARGES


@<TRIPOS>ATOM
1    C        28.2510    5.3005   64.3947  C     
2    C        27.0929    5.0107   63.6466  C     
3    C        26.8499    3.6702   63.8704  C     
4    N        28.6584    4.1188   64.9522  N     
5    N        27.8472    3.2102   64.6239  N     
6    C        28.8929    6.5552   64.5746  C     
7    O        28.1423    7.6965   63.8945  O     
8    N        26.0943    5.6271   62.7937  N     
9    C        26.0132    6.8255   62.2834  C     
10   O        27.2408    7.3652   62.6074  O     
11   C        24.9911    7.5189   61.5254  C     
12   C        22.7858    7.5712   60.7859  C     
13   C        23.0621    8.7616   60.1109  C     
14   C        24.3355    9.3356   60.1389  C     
15   C        23.6563    6.9387   61.5681  C     
16   C        25.3107    8.7086   60.8381  C     
17   F        23.1732    6.0130   62.2955  F     
18   F        26.4705    9.3982   60.7649  F     
19   C        32.0195    9.4591   66.6532  C     
20   C        32.9593    9.7044   65.4401  C     
21   C        32.2206    9.6419   64.0814  C     
22   C        31.4124    8.3246   63.9378  C     
23   C        31.2456    8.1430   66.5300  C     
24   O        33.6431   10.9360   65.6175  O     
25   C        30.5338    8.0960   65.2071  C     
26   N        29.9828    6.7469   65.2043  N     
27   H        26.0975    3.0211   63.5379  H     
28   H        27.9880    2.3007   64.9525  H     
29   H        25.4153    4.9215   62.6350  H     
30   H        21.8737    7.1656   60.7562  H     
31   H        22.3412    9.1936   59.5579  H     
32   H        24.5258   10.1839   59.6293  H     
33   H        32.6103    9.4198   67.5750  H     
34   H        31.3131   10.2884   66.7301  H     
35   H        33.7272    8.9382   65.4511  H     
36   H        31.5450   10.4890   63.9958  H     
37   H        32.9292    9.7076   63.2682  H     
38   H        30.7871    8.3602   63.0258  H     
39   H        32.0972    7.4747   63.8269  H     
40   H        31.9274    7.2942   66.5835  H     
41   H        30.5174    8.0697   67.3411  H     
42   H        32.9503   11.6134   65.7081  H     
43   H        29.7502    8.8973   65.2014  H     
44   H        30.3637    6.0156   65.6286  H     
@<TRIPOS>BOND
     1    1    2 1
     2    1    4 2
     3    1    6 1
     4    2    3 2
     5    2    8 1
     6    3    5 1
     7    4    5 1
     8    6    7 2
     9    6   26 am
    10    8    9 am
    11    9   10 2
    12    9   11 1
    13   11   15 2
    14   11   16 1
    15   12   13 2
    16   12   15 1
    17   13   14 1
    18   14   16 2
    19   15   17 1
    20   16   18 1
    21   19   20 1
    22   19   23 1
    23   20   21 1
    24   20   24 1
    25   21   22 1
    26   22   25 1
    27   23   25 1
    28   25   26 1
    29    3   27 1
    30    5   28 1
    31    8   29 1
    32   12   30 1
    33   13   31 1
    34   14   32 1
    35   19   33 1
    36   19   34 1
    37   20   35 1
    38   21   36 1
    39   21   37 1
    40   22   38 1
    41   22   39 1
    42   23   40 1
    43   23   41 1
    44   24   42 1
    45   25   43 1
    46   26   44 1
@<TRIPOS>PROPERTY_DATA
  Total_Score	| 6.2045
  Crash		| -2.5730
  Polar		| 3.2650
  FragIndex	| 1
  FragRMSD	| 1.217

