@<TRIPOS>MOLECULE
BindingDB_16111
 43 45 0 0 0
SMALL
NO_CHARGES


@<TRIPOS>ATOM
1    C        48.6161   40.1557   -1.6496  C     
2    C        48.3211   39.8326   -2.9262  C     
3    C        47.2441   38.8663   -3.0070  C     
4    C        46.8622   38.5511   -1.5495  C     
5    C        47.8510   39.3706   -0.7015  C     
6    C        48.9300   40.2792   -4.1013  C     
7    O        50.1879   40.7680   -4.0856  O     
8    O        48.4247   39.9989   -5.3272  O     
9    C        49.4863   41.1103   -1.1963  C     
10   O        50.1248   40.8783   -0.1760  O     
11   N        49.6439   42.2668   -1.8358  N     
12   C        50.5260   43.2580   -1.5051  C     
13   C        52.4526   45.2604   -0.8524  C     
14   C        52.4792   44.6038   -2.1061  C     
15   C        51.5196   43.6335   -2.4410  C     
16   C        50.4788   43.9239   -0.2583  C     
17   C        51.4284   44.9111    0.0656  C     
18   F        51.6257   43.0442   -3.6060  F     
19   C        53.4690   46.1904   -0.5067  C     
20   C        55.6171   47.9419    0.0915  C     
21   C        55.2451   46.9454    1.0112  C     
22   C        54.1798   46.0769    0.7148  C     
23   C        53.8555   47.2099   -1.4133  C     
24   C        54.9353   48.0627   -1.1351  C     
25   O        55.3010   49.0441   -2.0145  O     
26   C        56.3097   48.6360   -2.9571  C     
27   H        46.3929   39.2866   -3.5493  H     
28   H        47.5839   37.9566   -3.5150  H     
29   H        45.8289   38.8554   -1.3539  H     
30   H        46.9577   37.4797   -1.3438  H     
31   H        48.5161   38.7077   -0.1357  H     
32   H        47.3032   40.0187   -0.0074  H     
33   H        49.1864   42.3640   -2.6799  H     
34   H        53.2198   44.8232   -2.7840  H     
35   H        49.7428   43.6906    0.4125  H     
36   H        51.3679   45.3642    0.9799  H     
37   H        56.4015   48.5595    0.3104  H     
38   H        55.7634   46.8379    1.8897  H     
39   H        53.9427   45.3345    1.3807  H     
40   H        53.3565   47.3259   -2.2975  H     
41   H        57.2180   48.2836   -2.4553  H     
42   H        56.5693   49.4938   -3.5730  H     
43   H        55.9387   47.8481   -3.6213  H     
@<TRIPOS>BOND
     1    1    2 2
     2    1    5 1
     3    1    9 1
     4    2    3 1
     5    2    6 1
     6    3    4 1
     7    4    5 1
     8    6    7 2
     9    6    8 1
    10    9   10 2
    11    9   11 am
    12   11   12 1
    13   12   15 1
    14   12   16 2
    15   13   14 1
    16   13   17 2
    17   13   19 1
    18   14   15 2
    19   15   18 1
    20   16   17 1
    21   19   22 1
    22   19   23 2
    23   20   21 1
    24   20   24 2
    25   21   22 2
    26   23   24 1
    27   24   25 1
    28   25   26 1
    29    3   27 1
    30    3   28 1
    31    4   29 1
    32    4   30 1
    33    5   31 1
    34    5   32 1
    35   11   33 1
    36   14   34 1
    37   16   35 1
    38   17   36 1
    39   20   37 1
    40   21   38 1
    41   22   39 1
    42   23   40 1
    43   26   41 1
    44   26   42 1
    45   26   43 1
@<TRIPOS>PROPERTY_DATA
  Total_Score	| 10.7396
  Crash		| -0.7139
  Polar		| 4.1653
  FragIndex	| 1
  FragRMSD	| 0.442

