@<TRIPOS>MOLECULE
BindingDB_50165297
 51 53 0 0 0
SMALL
NO_CHARGES


@<TRIPOS>ATOM
1    N        -1.9330   10.2527   26.6863  N     
2    C        -1.0859    9.5822   27.5180  C     
3    N         0.2339    9.4517   27.1966  N     
4    C        -1.4962   10.8212   25.5294  C     
5    N        -2.3345   11.4762   24.7111  N     
6    C        -0.1372   10.7004   25.1988  C     
7    C         0.7104    9.9984   26.0472  C     
8    N         1.9366   10.0081   25.4877  N     
9    C         1.8388   10.7255   24.3319  C     
10   N         0.5662   11.1367   24.1545  N     
11   C         3.0996    9.3682   26.0430  C     
12   C         3.0343    7.8178   26.0857  C     
13   C         2.6236    7.1326   24.7467  C     
14   C         1.2751    6.9413   24.6213  C     
15   C         0.1002    6.7443   24.5254  C     
16   C         2.8875   11.0394   23.3301  C     
17   C         3.9259   11.9805   23.8425  C     
18   C         5.2738   11.5670   24.0065  C     
19   C         6.2544   12.4706   24.4782  C     
20   C         5.8903   13.7990   24.7944  C     
21   C         4.5420   14.2097   24.6811  C     
22   C         3.5845   13.3099   24.1725  C     
23   O         6.8420   14.6265   25.3325  O     
24   C         7.2409   15.7369   24.5109  C     
25   O         7.5349   12.0748   24.7859  O     
26   C         8.2020   11.2057   23.8648  C     
27   O         4.1555   15.4838   24.9934  O     
28   C         4.1505   15.8063   26.3960  C     
29   H        -1.4411    9.1700   28.3823  H     
30   H        -1.9986   11.8768   23.8928  H     
31   H        -3.2768   11.5492   24.9279  H     
32   H         3.9875    9.6452   25.4784  H     
33   H         3.2548    9.7406   27.0596  H     
34   H         4.0297    7.4536   26.3600  H     
35   H         2.3630    7.5052   26.8915  H     
36   H         2.9811    7.7256   23.8928  H     
37   H         3.0977    6.1515   24.6805  H     
38   H        -0.8060    6.5867   24.4631  H     
39   H         3.3160   10.0985   22.9826  H     
40   H         2.4209   11.5050   22.4553  H     
41   H         5.5413   10.5978   23.8123  H     
42   H         2.6195   13.6183   24.0707  H     
43   H         7.6335   15.4003   23.5489  H     
44   H         8.0317   16.2744   25.0390  H     
45   H         6.4153   16.4318   24.3495  H     
46   H         7.7405   10.2166   23.8621  H     
47   H         9.2447   11.1086   24.1938  H     
48   H         8.1935   11.6188   22.8542  H     
49   H         3.4633   15.1594   26.9514  H     
50   H         3.8158   16.8432   26.5109  H     
51   H         5.1514   15.7330   26.8284  H     
@<TRIPOS>BOND
     1    1    2 2
     2    1    4 1
     3    2    3 1
     4    3    7 2
     5    4    5 1
     6    4    6 2
     7    6    7 1
     8    6   10 1
     9    7    8 1
    10    8    9 1
    11    8   11 1
    12    9   10 2
    13    9   16 1
    14   11   12 1
    15   12   13 1
    16   13   14 1
    17   14   15 3
    18   16   17 1
    19   17   18 2
    20   17   22 1
    21   18   19 1
    22   19   20 2
    23   19   25 1
    24   20   21 1
    25   20   23 1
    26   21   22 2
    27   21   27 1
    28   23   24 1
    29   25   26 1
    30   27   28 1
    31    2   29 1
    32    5   30 1
    33    5   31 1
    34   11   32 1
    35   11   33 1
    36   12   34 1
    37   12   35 1
    38   13   36 1
    39   13   37 1
    40   15   38 1
    41   16   39 1
    42   16   40 1
    43   18   41 1
    44   22   42 1
    45   24   43 1
    46   24   44 1
    47   24   45 1
    48   26   46 1
    49   26   47 1
    50   26   48 1
    51   28   49 1
    52   28   50 1
    53   28   51 1
@<TRIPOS>PROPERTY_DATA
  Total_Score	| 9.1355
  Crash		| -0.6114
  Polar		| 1.2824
  FragIndex	| 1
  FragRMSD	| 0.553

