@<TRIPOS>MOLECULE
BindingDB_15375
 44 46 0 0 0
SMALL
NO_CHARGES


@<TRIPOS>ATOM
1    C        -1.3948   10.8327   25.4639  C     
2    C        -0.9712    9.6390   27.4780  C     
3    N         0.3426    9.5001   27.1506  N     
4    N        -1.8225   10.2912   26.6360  N     
5    N        -2.2639   11.4552   24.6504  N     
6    C        -0.0370   10.7029   25.1256  C     
7    C         0.8119   10.0174   25.9865  C     
8    C         1.9427   10.6949   24.2544  C     
9    N         0.6714   11.1063   24.0683  N     
10   N         2.0414   10.0069   25.4279  N     
11   C         3.1944    9.3705   26.0134  C     
12   C         3.1206    7.8133   25.9889  C     
13   C         3.7229    7.1403   24.7251  C     
14   C         5.2642    7.2391   24.6313  C     
15   C         2.9910   10.9908   23.2497  C     
16   C         4.0156   11.9454   23.7530  C     
17   C         5.3296   11.5127   24.0489  C     
18   C         6.2883   12.4083   24.5554  C     
19   C         4.6586   14.2102   24.4512  C     
20   C         3.6984   13.3113   23.9506  C     
21   C         5.9572   13.7623   24.7596  C     
22   O         6.8680   14.6250   25.3109  O     
23   C         7.1830   15.7513   24.4733  C     
24   H        -1.3207    9.2507   28.3543  H     
25   H        -1.9560   11.8433   23.8149  H     
26   H        -3.2056   11.4952   24.8783  H     
27   H         4.1106    9.6958   25.5210  H     
28   H         3.2804    9.6983   27.0560  H     
29   H         3.6317    7.4265   26.8761  H     
30   H         2.0731    7.5135   26.0643  H     
31   H         3.4574    6.0790   24.7360  H     
32   H         3.2874    7.5815   23.8257  H     
33   H         5.5918    8.2803   24.6600  H     
34   H         5.6034    6.7961   23.6920  H     
35   H         5.7366    6.6978   25.4556  H     
36   H         3.4362   10.0427   22.9416  H     
37   H         2.5308   11.4247   22.3599  H     
38   H         5.5974   10.5353   23.9104  H     
39   H         7.2288   12.0723   24.7814  H     
40   H         4.4080   15.1902   24.5969  H     
41   H         2.7640   13.6589   23.7287  H     
42   H         7.5479   15.4283   23.4934  H     
43   H         7.9748   16.3296   24.9562  H     
44   H         6.3116   16.4000   24.3462  H     
@<TRIPOS>BOND
     1    1    4 1
     2    1    5 1
     3    1    6 2
     4    2    3 1
     5    2    4 2
     6    3    7 2
     7    6    7 1
     8    6    9 1
     9    7   10 1
    10    8    9 2
    11    8   10 1
    12    8   15 1
    13   10   11 1
    14   11   12 1
    15   12   13 1
    16   13   14 1
    17   15   16 1
    18   16   17 2
    19   16   20 1
    20   17   18 1
    21   18   21 2
    22   19   20 2
    23   19   21 1
    24   21   22 1
    25   22   23 1
    26    2   24 1
    27    5   25 1
    28    5   26 1
    29   11   27 1
    30   11   28 1
    31   12   29 1
    32   12   30 1
    33   13   31 1
    34   13   32 1
    35   14   33 1
    36   14   34 1
    37   14   35 1
    38   15   36 1
    39   15   37 1
    40   17   38 1
    41   18   39 1
    42   19   40 1
    43   20   41 1
    44   23   42 1
    45   23   43 1
    46   23   44 1
@<TRIPOS>PROPERTY_DATA
  Total_Score	| 6.3740
  Crash		| -0.3930
  Polar		| 1.3045
  FragIndex	| 1
  FragRMSD	| 0.525

