@<TRIPOS>MOLECULE
BindingDB_50165270
 51 53 0 0 0
SMALL
NO_CHARGES


@<TRIPOS>ATOM
1    C         0.7917   10.0420   25.8966  C     
2    C        -0.0561   10.7812   25.0737  C     
3    N         0.6489   11.2401   24.0411  N     
4    N         2.0221   10.0600   25.3462  N     
5    C         1.9191   10.8120   24.2100  C     
6    N         0.3328    9.4783   27.0421  N     
7    N        -1.8256   10.3189   26.5816  N     
8    C        -1.4054   10.9145   25.4313  C     
9    C        -0.9772    9.6161   27.3827  C     
10   C         5.9307   13.8871   24.7539  C     
11   C         4.5964   14.3275   24.5726  C     
12   C         6.2818   12.5646   24.4107  C     
13   C         2.9441   11.1589   23.1994  C     
14   C         3.9605   12.1055   23.7267  C     
15   C         2.5530    7.2482   23.7320  C     
16   C         1.7087    7.2791   22.8756  C     
17   C         5.2969   11.6914   23.8967  C     
18   C         3.6255   13.4378   24.0620  C     
19   N        -2.2557   11.6068   24.6613  N     
20   F        -1.4156    9.0845   28.4826  F     
21   C         3.1835    9.4472   25.9446  C     
22   O         6.8736   14.7004   25.3253  O     
23   O         4.2284   15.6151   24.8775  O     
24   O         7.5559   12.1143   24.6590  O     
25   C         3.5146    7.1606   24.6954  C     
26   C         7.3288   15.7800   24.4916  C     
27   C         8.0665   11.1768   23.6947  C     
28   C         4.1810   15.8864   26.2948  C     
29   C         3.1337    7.8898   26.0124  C     
30   H         3.4023   10.2285   22.8485  H     
31   H         2.4780   11.6288   22.3231  H     
32   H         1.0640    7.2986   22.2217  H     
33   H         5.5584   10.7267   23.6648  H     
34   H         2.6633   13.7674   23.9437  H     
35   H        -3.1912   11.6651   24.8993  H     
36   H        -1.9337   12.0342   23.8543  H     
37   H         4.0959    9.7402   25.4231  H     
38   H         3.2694    9.8230   26.9709  H     
39   H         3.6667    6.0989   24.9109  H     
40   H         4.4507    7.5655   24.2997  H     
41   H         7.6832   15.4124   23.5223  H     
42   H         8.1661   16.2629   25.0046  H     
43   H         6.5196   16.5025   24.3622  H     
44   H         7.5854   10.2008   23.8110  H     
45   H         9.1378   11.0604   23.8701  H     
46   H         7.9054   11.5388   22.6746  H     
47   H         3.5313   15.1838   26.8231  H     
48   H         3.7897   16.8932   26.4406  H     
49   H         5.1825   15.8497   26.7223  H     
50   H         3.8614    7.5730   26.7754  H     
51   H         2.1401    7.5504   26.3556  H     
@<TRIPOS>BOND
     1    1    2 1
     2    1    4 1
     3    1    6 2
     4    2    3 1
     5    2    8 2
     6    3    5 2
     7    4    5 1
     8    4   21 1
     9    5   13 1
    10    6    9 1
    11    7    8 1
    12    7    9 2
    13    8   19 1
    14    9   20 1
    15   10   11 1
    16   10   12 2
    17   10   22 1
    18   11   18 2
    19   11   23 1
    20   12   17 1
    21   12   24 1
    22   13   14 1
    23   14   17 2
    24   14   18 1
    25   15   16 3
    26   15   25 1
    27   21   29 1
    28   22   26 1
    29   23   28 1
    30   24   27 1
    31   25   29 1
    32   13   30 1
    33   13   31 1
    34   16   32 1
    35   17   33 1
    36   18   34 1
    37   19   35 1
    38   19   36 1
    39   21   37 1
    40   21   38 1
    41   25   39 1
    42   25   40 1
    43   26   41 1
    44   26   42 1
    45   26   43 1
    46   27   44 1
    47   27   45 1
    48   27   46 1
    49   28   47 1
    50   28   48 1
    51   28   49 1
    52   29   50 1
    53   29   51 1
@<TRIPOS>PROPERTY_DATA
  Total_Score	| 9.3140
  Crash		| -0.8182
  Polar		| 1.3414
  FragIndex	| 1
  FragRMSD	| 0.564

