@<TRIPOS>MOLECULE
BindingDB_50165283
 56 58 0 0 0
SMALL
NO_CHARGES


@<TRIPOS>ATOM
1    N         0.6200   11.2110   24.2118  N     
2    C        -0.1356   10.7945   25.2288  C     
3    C         1.8555   10.7115   24.4129  C     
4    N         1.8844    9.9719   25.5578  N     
5    C         0.6468   10.0370   26.0909  C     
6    C        -1.5005   10.9494   25.5189  C     
7    N         0.1077    9.4881   27.2162  N     
8    C         5.8890   13.8067   24.7810  C     
9    N        -1.9983   10.3807   26.6520  N     
10   C         6.2626   12.4811   24.4953  C     
11   C         4.5429   14.2028   24.6233  C     
12   C         2.9305   10.9438   23.4248  C     
13   C         3.9445   11.9351   23.8860  C     
14   C        -1.2019    9.6765   27.5032  C     
15   C         5.2948   11.5595   24.0465  C     
16   C         3.5853   13.2754   24.1650  C     
17   C         2.9603    9.1849   26.0996  C     
18   N        -2.3013   11.6150   24.6745  N     
19   O         6.8287   14.6509   25.3193  O     
20   O         7.5524   12.0798   24.7465  O     
21   O         4.1423   15.4884   24.8953  O     
22   C         2.6373    7.6657   26.0482  C     
23   O         1.3831    7.4199   26.7134  O     
24   C         0.7253    6.1622   26.4824  C     
25   C         7.2668   15.7068   24.4476  C     
26   C         4.1775   15.8173   26.2944  C     
27   C         8.1170   11.1972   23.7647  C     
28   C        -0.2854    5.9528   27.6345  C     
29   C         0.0005    6.1546   25.1107  C     
30   H         3.3854    9.9767   23.1985  H     
31   H         2.5045   11.3134   22.4875  H     
32   H        -1.5980    9.2644   28.3468  H     
33   H         5.5791   10.5935   23.8573  H     
34   H         2.6168   13.5738   24.0537  H     
35   H         3.8817    9.3613   25.5522  H     
36   H         3.1545    9.4797   27.1362  H     
37   H        -3.2548   11.6789   24.8479  H     
38   H        -1.9396   12.0087   23.8635  H     
39   H         2.6240    7.3445   25.0044  H     
40   H         3.4282    7.1161   26.5711  H     
41   H         1.4438    5.3280   26.5154  H     
42   H         7.5913   15.3215   23.4791  H     
43   H         8.1174   16.1978   24.9268  H     
44   H         6.4734   16.4440   24.3159  H     
45   H         3.5771   15.1183   26.8857  H     
46   H         3.7710   16.8215   26.4305  H     
47   H         5.2039   15.8245   26.6710  H     
48   H         7.6682   10.2038   23.8256  H     
49   H         9.1862   11.0986   23.9698  H     
50   H         7.9891   11.5884   22.7499  H     
51   H         0.2399    5.9462   28.5934  H     
52   H        -0.8097    5.0029   27.5251  H     
53   H        -1.0234    6.7619   27.6514  H     
54   H        -0.6516    7.0279   25.0184  H     
55   H        -0.6080    5.2552   24.9956  H     
56   H         0.7235    6.1775   24.2939  H     
@<TRIPOS>BOND
     1    1    2 1
     2    1    3 2
     3    2    5 1
     4    2    6 2
     5    3    4 1
     6    3   12 1
     7    4    5 1
     8    4   17 1
     9    5    7 2
    10    6    9 1
    11    6   18 1
    12    7   14 1
    13    8   10 2
    14    8   11 1
    15    8   19 1
    16    9   14 2
    17   10   15 1
    18   10   20 1
    19   11   16 2
    20   11   21 1
    21   12   13 1
    22   13   15 2
    23   13   16 1
    24   17   22 1
    25   19   25 1
    26   20   27 1
    27   21   26 1
    28   22   23 1
    29   23   24 1
    30   24   28 1
    31   24   29 1
    32   12   30 1
    33   12   31 1
    34   14   32 1
    35   15   33 1
    36   16   34 1
    37   17   35 1
    38   17   36 1
    39   18   37 1
    40   18   38 1
    41   22   39 1
    42   22   40 1
    43   24   41 1
    44   25   42 1
    45   25   43 1
    46   25   44 1
    47   26   45 1
    48   26   46 1
    49   26   47 1
    50   27   48 1
    51   27   49 1
    52   27   50 1
    53   28   51 1
    54   28   52 1
    55   28   53 1
    56   29   54 1
    57   29   55 1
    58   29   56 1
@<TRIPOS>PROPERTY_DATA
  Total_Score	| 10.3635
  Crash		| -0.7833
  Polar		| 1.3330
  FragIndex	| 1
  FragRMSD	| 0.553

