@<TRIPOS>MOLECULE
BindingDB_18785
 27 28 0 0 0
SMALL
NO_CHARGES


@<TRIPOS>ATOM
1    C        28.3159    3.1560   15.2662  C     
2    C        28.3098    3.5045   13.8990  C     
3    C        28.6066    2.5371   12.9181  C     
4    C        28.9198    1.2160   13.3200  C     
5    C        28.9137    0.8635   14.6835  C     
6    C        28.5992    1.8317   15.6549  C     
7    C        28.6058    2.8721   11.5418  C     
8    C        27.8685    2.1047   10.6082  C     
9    C        28.7858    3.3479    8.8061  C     
10   C        29.4048    3.9348   11.0309  C     
11   N        27.0595    1.0848   10.9535  N     
12   N        28.9354    3.5429    7.4862  N     
13   N        27.9887    2.3602    9.2783  N     
14   N        29.4607    4.1279    9.6876  N     
15   C        30.1964    4.8525   11.8800  C     
16   Cl       28.0011    4.3292   16.4454  Cl    
17   H        28.0978    4.4668   13.6210  H     
18   H        29.1316    0.4972   12.6223  H     
19   H        29.1241   -0.0961   14.9647  H     
20   H        28.5577    1.5605   16.6362  H     
21   H        26.6234    0.5639   10.2599  H     
22   H        26.9086    0.8484   11.8824  H     
23   H        29.5517    4.2254    7.1708  H     
24   H        28.4683    2.9789    6.8511  H     
25   H        29.5378    5.3664   12.5814  H     
26   H        30.7151    5.6097   11.2841  H     
27   H        30.9447    4.2914   12.4426  H     
@<TRIPOS>BOND
     1    1    2 1
     2    1    6 2
     3    1   16 1
     4    2    3 2
     5    3    4 1
     6    3    7 1
     7    4    5 2
     8    5    6 1
     9    7    8 1
    10    7   10 2
    11    8   11 1
    12    8   13 2
    13    9   12 1
    14    9   13 1
    15    9   14 2
    16   10   14 1
    17   10   15 1
    18    2   17 1
    19    4   18 1
    20    5   19 1
    21    6   20 1
    22   11   21 1
    23   11   22 1
    24   12   23 1
    25   12   24 1
    26   15   25 1
    27   15   26 1
    28   15   27 1
@<TRIPOS>PROPERTY_DATA
  Total_Score	| 4.9562
  Crash		| -0.5431
  Polar		| 2.4295
  FragIndex	| 1
  FragRMSD	| 0.461

