@<TRIPOS>MOLECULE
BindingDB_18789
 27 28 0 0 0
SMALL
NO_CHARGES


@<TRIPOS>ATOM
1    C        28.3230    3.2488   15.2833  C     
2    C        28.3301    3.5359   13.9009  C     
3    C        28.6270    2.5211   12.9609  C     
4    C        28.8676    1.2084   13.4322  C     
5    C        28.8295    0.9210   14.8085  C     
6    C        28.5720    1.9446   15.7376  C     
7    C        28.6588    2.8155   11.5660  C     
8    C        27.8301    2.1071   10.6529  C     
9    C        28.7053    3.3287    8.8229  C     
10   C        29.5214    3.8055   11.0097  C     
11   N        26.9606    1.1484   11.0199  N     
12   N        28.7507    3.5796    7.5033  N     
13   N        27.8761    2.3826    9.3219  N     
14   N        29.5010    4.0212    9.6682  N     
15   C        30.4936    4.6068   11.7836  C     
16   H        28.1209    3.9917   15.9582  H     
17   H        28.1103    4.4808   13.5907  H     
18   H        29.0759    0.4509   12.7780  H     
19   H        28.9901   -0.0363   15.1370  H     
20   H        28.5641    1.7378   16.7423  H     
21   H        26.4249    0.6973   10.3438  H     
22   H        26.8671    0.8789   11.9464  H     
23   H        29.3610    4.2537    7.1574  H     
24   H        28.1893    3.0783    6.8920  H     
25   H        29.9732    5.2216   12.5212  H     
26   H        31.0725    5.2677   11.1319  H     
27   H        31.1910    3.9476   12.2912  H     
@<TRIPOS>BOND
     1    1    2 2
     2    1    6 1
     3    2    3 1
     4    3    4 2
     5    3    7 1
     6    4    5 1
     7    5    6 2
     8    7    8 1
     9    7   10 2
    10    8   11 1
    11    8   13 2
    12    9   12 1
    13    9   13 1
    14    9   14 2
    15   10   14 1
    16   10   15 1
    17    1   16 1
    18    2   17 1
    19    4   18 1
    20    5   19 1
    21    6   20 1
    22   11   21 1
    23   11   22 1
    24   12   23 1
    25   12   24 1
    26   15   25 1
    27   15   26 1
    28   15   27 1
@<TRIPOS>PROPERTY_DATA
  Total_Score	| 4.3085
  Crash		| -0.5135
  Polar		| 1.8341
  FragIndex	| 1
  FragRMSD	| 0.438

