@<TRIPOS>MOLECULE
BindingDB_18775
 27 28 0 0 0
SMALL
NO_CHARGES


@<TRIPOS>ATOM
1    C        30.1109    1.3113   14.4928  C     
2    C        29.8579    1.6043   13.1429  C     
3    C        28.8078    2.4815   12.7869  C     
4    C        27.9912    3.0353   13.7992  C     
5    C        28.2431    2.7377   15.1520  C     
6    C        29.3145    1.8903   15.4987  C     
7    C        28.6519    2.8459   11.4283  C     
8    C        27.8821    2.0504   10.5438  C     
9    C        28.6349    3.3232    8.6908  C     
10   C        29.3700    3.9373   10.8682  C     
11   N        27.1182    1.0205   10.9543  N     
12   N        28.6842    3.5293    7.3667  N     
13   N        27.9034    2.3096    9.2117  N     
14   N        29.3346    4.1265    9.5235  N     
15   Cl       29.6998    1.6070   17.1175  Cl    
16   C        30.1890    4.8773   11.6644  C     
17   H        30.8929    0.6983   14.7368  H     
18   H        30.4664    1.1976   12.4255  H     
19   H        27.2303    3.6775   13.5593  H     
20   H        27.6631    3.1637   15.8800  H     
21   H        26.6072    0.5154   10.3047  H     
22   H        27.0521    0.7836   11.8925  H     
23   H        29.2277    4.2493    7.0064  H     
24   H        28.2071    2.9377    6.7643  H     
25   H        29.5581    5.3814   12.3979  H     
26   H        30.6521    5.6382   11.0316  H     
27   H        30.9808    4.3348   12.1838  H     
@<TRIPOS>BOND
     1    1    2 1
     2    1    6 2
     3    2    3 2
     4    3    4 1
     5    3    7 1
     6    4    5 2
     7    5    6 1
     8    6   15 1
     9    7    8 1
    10    7   10 2
    11    8   11 1
    12    8   13 2
    13    9   12 1
    14    9   13 1
    15    9   14 2
    16   10   14 1
    17   10   16 1
    18    1   17 1
    19    2   18 1
    20    4   19 1
    21    5   20 1
    22   11   21 1
    23   11   22 1
    24   12   23 1
    25   12   24 1
    26   16   25 1
    27   16   26 1
    28   16   27 1
@<TRIPOS>PROPERTY_DATA
  Total_Score	| 2.8325
  Crash		| -1.4543
  Polar		| 1.6819
  FragIndex	| 1
  FragRMSD	| 0.365

