@<TRIPOS>MOLECULE
BindingDB_50359813
 28 30 0 0 0
SMALL
NO_CHARGES


@<TRIPOS>ATOM
1    C        21.5714   -4.4572    8.8172  C     
2    C        20.8028   -3.4732    8.3008  C     
3    C        19.7515   -5.3928    9.9911  C     
4    C        21.0533   -5.4078    9.6468  C     
5    C        18.8915   -4.3995    9.5027  C     
6    C        19.4290   -3.4103    8.6275  C     
7    C        18.5400   -2.4256    8.1421  C     
8    N        17.2381   -2.4251    8.5176  N     
9    C        16.6822   -3.3399    9.3523  C     
10   C        17.5216   -4.3649    9.8551  C     
11   N        15.3575   -3.1493    9.5918  N     
12   C        14.5021   -3.7973   10.4361  C     
13   C        13.1165   -3.5402   10.3502  C     
14   N        12.2672   -4.1584   11.2137  N     
15   C        12.6952   -5.0177   12.1751  C     
16   C        14.0758   -5.2732   12.2770  C     
17   N        14.9131   -4.6528   11.4098  N     
18   C        11.8429   -5.5918   12.9685  C     
19   N        11.1004   -6.1154   13.6714  N     
20   Cl       21.5426   -2.3760    7.2828  Cl    
21   H        22.5401   -4.5055    8.5927  H     
22   H        19.4045   -6.1031   10.5941  H     
23   H        21.6456   -6.1248   10.0003  H     
24   H        18.8556   -1.6932    7.5075  H     
25   H        17.1484   -5.0965   10.4577  H     
26   H        14.9547   -2.4226    9.0865  H     
27   H        12.7381   -2.9015    9.6477  H     
28   H        14.4599   -5.9051   12.9832  H     
@<TRIPOS>BOND
     1    1    2 2
     2    1    4 1
     3    2    6 1
     4    2   20 1
     5    3    4 2
     6    3    5 1
     7    5    6 1
     8    5   10 2
     9    6    7 2
    10    7    8 1
    11    8    9 2
    12    9   10 1
    13    9   11 1
    14   11   12 1
    15   12   13 2
    16   12   17 1
    17   13   14 1
    18   14   15 2
    19   15   16 1
    20   15   18 1
    21   16   17 2
    22   18   19 3
    23    1   21 1
    24    3   22 1
    25    4   23 1
    26    7   24 1
    27   10   25 1
    28   11   26 1
    29   13   27 1
    30   16   28 1
@<TRIPOS>PROPERTY_DATA
  Total_Score	| 5.1769
  Crash		| -0.5375
  Polar		| 2.2098
  FragIndex	| 1
  FragRMSD	| 1.161

