@<TRIPOS>MOLECULE
BindingDB_50359815
 28 30 0 0 0
SMALL
NO_CHARGES


@<TRIPOS>ATOM
1    C        21.6770   -3.8999    8.4240  C     
2    C        20.7952   -2.9850    7.9701  C     
3    C        19.9999   -4.9722    9.7129  C     
4    C        21.2761   -4.8852    9.2849  C     
5    C        19.0346   -4.0505    9.2856  C     
6    C        19.4570   -3.0358    8.3822  C     
7    C        18.4965   -2.1066    7.9508  C     
8    N        17.2197   -2.1767    8.4021  N     
9    C        16.7523   -3.1251    9.2579  C     
10   C        17.6837   -4.0936    9.7188  C     
11   N        15.4284   -2.9950    9.5428  N     
12   C        14.6263   -3.7155   10.3751  C     
13   C        13.2451   -3.4368   10.3920  C     
14   N        12.4320   -4.1319   11.2324  N     
15   C        12.8911   -5.0979   12.0739  C     
16   C        14.2688   -5.3840   12.0666  C     
17   N        15.0734   -4.6841   11.2234  N     
18   C        12.0613   -5.7262   12.8563  C     
19   N        11.3377   -6.2863   13.5481  N     
20   H        22.6255   -3.8590    8.1300  H     
21   H        21.1096   -2.2728    7.3543  H     
22   H        19.7413   -5.6990   10.3342  H     
23   H        21.9345   -5.5596    9.6004  H     
24   H        18.7499   -1.3657    7.3117  H     
25   H        17.3977   -4.8331   10.3504  H     
26   H        14.9764   -2.2695    9.0729  H     
27   H        12.8439   -2.7336    9.7777  H     
28   H        14.6772   -6.0847   12.6819  H     
@<TRIPOS>BOND
     1    1    2 2
     2    1    4 1
     3    2    6 1
     4    3    4 2
     5    3    5 1
     6    5    6 1
     7    5   10 2
     8    6    7 2
     9    7    8 1
    10    8    9 2
    11    9   10 1
    12    9   11 1
    13   11   12 1
    14   12   13 2
    15   12   17 1
    16   13   14 1
    17   14   15 2
    18   15   16 1
    19   15   18 1
    20   16   17 2
    21   18   19 3
    22    1   20 1
    23    2   21 1
    24    3   22 1
    25    4   23 1
    26    7   24 1
    27   10   25 1
    28   11   26 1
    29   13   27 1
    30   16   28 1
@<TRIPOS>PROPERTY_DATA
  Total_Score	| 5.2372
  Crash		| -0.9472
  Polar		| 2.4818
  FragIndex	| 1
  FragRMSD	| 1.460

