@<TRIPOS>MOLECULE
BindingDB_91960
 31 33 0 0 0
SMALL
NO_CHARGES


@<TRIPOS>ATOM
1    O        17.0225   -4.3408   11.1566  O     
2    C        16.6920   -3.7844   10.1106  C     
3    N        15.4217   -3.4730    9.8743  N     
4    C        14.3385   -3.8422   10.6135  C     
5    C        13.0379   -3.3848   10.3228  C     
6    N        11.9932   -3.8089   11.0870  N     
7    C        12.1388   -4.6672   12.1297  C     
8    C        13.4283   -5.1342   12.4333  C     
9    N        14.4603   -4.7043   11.6669  N     
10   C        11.1083   -5.0521   12.8168  C     
11   N        10.2046   -5.4057   13.4304  N     
12   N        17.6345   -3.4746    9.2364  N     
13   C        18.9593   -3.7922    9.2596  C     
14   C        19.6174   -4.6420   10.1923  C     
15   N        20.9585   -4.8708   10.0819  N     
16   C        21.7159   -4.3073    9.1082  C     
17   C        23.1042   -4.5373    9.0122  C     
18   C        23.8473   -3.9037    7.9950  C     
19   C        23.2074   -3.0445    7.0796  C     
20   C        21.8230   -2.8239    7.1685  C     
21   C        21.0706   -3.4530    8.1743  C     
22   N        19.7336   -3.2495    8.2907  N     
23   H        15.2393   -2.9414    9.0764  H     
24   H        12.8609   -2.7364    9.5545  H     
25   H        13.6119   -5.7802   13.2033  H     
26   H        17.3375   -2.9562    8.4638  H     
27   H        19.0947   -5.1102   10.9407  H     
28   H        23.5799   -5.1542    9.6746  H     
29   H        24.8556   -4.0653    7.9224  H     
30   H        23.7519   -2.5820    6.3469  H     
31   H        21.3664   -2.1965    6.5067  H     
@<TRIPOS>BOND
     1    1    2 2
     2    2    3 am
     3    3    4 1
     4    4    5 ar
     5    5    6 ar
     6    6    7 ar
     7    7    8 ar
     8    8    9 ar
     9    4    9 ar
    10    7   10 1
    11   10   11 3
    12    2   12 am
    13   12   13 1
    14   13   14 ar
    15   14   15 ar
    16   15   16 ar
    17   16   17 ar
    18   17   18 ar
    19   18   19 ar
    20   19   20 ar
    21   20   21 ar
    22   16   21 ar
    23   21   22 ar
    24   13   22 ar
    25    3   23 1
    26    5   24 1
    27    8   25 1
    28   12   26 1
    29   14   27 1
    30   17   28 1
    31   18   29 1
    32   19   30 1
    33   20   31 1
@<TRIPOS>PROPERTY_DATA
  Total_Score	| 1.7639
  Crash		| -0.3985
  Polar		| 0.0424
  FragIndex	| 1
  FragRMSD	| 1.496

