@<TRIPOS>MOLECULE
BindingDB_91854
 29 30 0 0 0
SMALL
NO_CHARGES


@<TRIPOS>ATOM
1    N        18.8871   -4.6287   11.3450  N     
2    C        19.4754   -4.2243   10.2027  C     
3    C        20.7850   -4.6857    9.9608  C     
4    C        21.4989   -4.2416    8.8386  C     
5    C        20.9051   -3.3310    7.9479  C     
6    Cl       21.7814   -2.7946    6.6032  Cl    
7    C        19.5919   -2.8730    8.1760  C     
8    C        18.8515   -3.3301    9.2883  C     
9    N        17.5931   -2.8165    9.4680  N     
10   C        16.4683   -3.5093    9.5682  C     
11   O        16.4466   -4.7033    9.3012  O     
12   N        15.3658   -2.8840    9.9629  N     
13   C        14.2981   -3.4534   10.5806  C     
14   C        13.1820   -2.6708   10.9443  C     
15   N        12.1904   -3.2306   11.6888  N     
16   C        12.2257   -4.5248   12.1055  C     
17   C        13.3292   -5.3176   11.7395  C     
18   N        14.3132   -4.7505   11.0014  N     
19   C        11.2796   -5.0045   12.8524  C     
20   N        10.4556   -5.4472   13.5190  N     
21   H        18.0047   -4.3138   11.5836  H     
22   H        19.3603   -5.2245   11.9484  H     
23   H        21.2369   -5.3336   10.6131  H     
24   H        22.4517   -4.5784    8.6801  H     
25   H        19.1696   -2.2086    7.5202  H     
26   H        17.5363   -1.8585    9.6144  H     
27   H        15.3678   -1.9148    9.9125  H     
28   H        13.1187   -1.6866   10.6773  H     
29   H        13.4194   -6.2916   12.0385  H     
@<TRIPOS>BOND
     1    1    2 1
     2    2    3 ar
     3    3    4 ar
     4    4    5 ar
     5    5    6 1
     6    5    7 ar
     7    7    8 ar
     8    2    8 ar
     9    8    9 1
    10    9   10 am
    11   10   11 2
    12   10   12 am
    13   12   13 1
    14   13   14 ar
    15   14   15 ar
    16   15   16 ar
    17   16   17 ar
    18   17   18 ar
    19   13   18 ar
    20   16   19 1
    21   19   20 3
    22    1   21 1
    23    1   22 1
    24    3   23 1
    25    4   24 1
    26    7   25 1
    27    9   26 1
    28   12   27 1
    29   14   28 1
    30   17   29 1
@<TRIPOS>PROPERTY_DATA
  Total_Score	| 2.5479
  Crash		| -0.6223
  Polar		| 0.1796
  FragIndex	| 1
  FragRMSD	| 0.998

