@<TRIPOS>MOLECULE
BindingDB_14639
 33 34 0 0 0
SMALL
NO_CHARGES


@<TRIPOS>ATOM
1    C        12.8216   -3.0249   10.5993  C     
2    C        14.1668   -3.4154   10.3870  C     
3    C        13.8566   -5.1971   11.9516  C     
4    C        12.5107   -4.8096   12.1495  C     
5    N        12.0496   -3.7272   11.4633  N     
6    N        14.6237   -4.4916   11.0837  N     
7    C        11.7085   -5.4554   12.9342  C     
8    N        11.0068   -6.0411   13.6272  N     
9    C        16.1726   -2.7664    9.1444  C     
10   O        16.5289   -1.9675    8.2844  O     
11   N        14.8981   -2.6869    9.4977  N     
12   N        17.0697   -3.5987    9.6608  N     
13   C        18.3933   -3.7455    9.3539  C     
14   C        20.4959   -3.0647    8.2453  C     
15   C        21.1406   -4.2319    8.7047  C     
16   C        20.4087   -5.1505    9.4977  C     
17   C        19.0739   -4.8663    9.8803  C     
18   C        19.1246   -2.8460    8.5360  C     
19   O        18.4079   -5.7465   10.7037  O     
20   C        19.0133   -5.9245   12.0044  C     
21   C        22.4680   -4.4735    8.4006  C     
22   O        22.7212   -4.9990    7.3070  O     
23   H        12.4255   -2.2115   10.1024  H     
24   H        14.2488   -6.0086   12.4397  H     
25   H        14.3955   -1.9664    9.0536  H     
26   H        16.7182   -4.2354   10.3045  H     
27   H        21.0040   -2.3862    7.6584  H     
28   H        20.8824   -6.0108    9.8409  H     
29   H        18.6484   -2.0109    8.1546  H     
30   H        19.9976   -6.3927   11.9346  H     
31   H        18.3690   -6.5844   12.5890  H     
32   H        19.1062   -4.9707   12.5302  H     
33   H        23.1590   -3.8691    8.8167  H     
@<TRIPOS>BOND
     1    1    2 1
     2    1    5 2
     3    2    6 2
     4    2   11 1
     5    3    4 2
     6    3    6 1
     7    4    5 1
     8    4    7 1
     9    7    8 3
    10    9   10 2
    11    9   11 am
    12    9   12 am
    13   12   13 1
    14   13   17 2
    15   13   18 1
    16   14   15 1
    17   14   18 2
    18   15   16 2
    19   15   21 1
    20   16   17 1
    21   17   19 1
    22   19   20 1
    23   21   22 2
    24    1   23 1
    25    3   24 1
    26   11   25 1
    27   12   26 1
    28   14   27 1
    29   16   28 1
    30   18   29 1
    31   20   30 1
    32   20   31 1
    33   20   32 1
    34   21   33 1
@<TRIPOS>PROPERTY_DATA
  Total_Score	| 6.3978
  Crash		| -0.7031
  Polar		| 3.2022
  FragIndex	| 1
  FragRMSD	| 0.384

