@<TRIPOS>MOLECULE
BindingDB_91957
 35 37 0 0 0
SMALL
NO_CHARGES


@<TRIPOS>ATOM
1    O         7.6430   -2.8967   12.9221  O     
2    C         8.4912   -3.6539   13.6405  C     
3    O         8.0150   -4.0858   14.8277  O     
4    C         9.8279   -3.8800   13.2126  C     
5    C        10.5246   -5.0427   13.6215  C     
6    C        11.8141   -5.3193   13.1376  C     
7    C        12.4280   -4.4528   12.2100  C     
8    C        13.7085   -4.7392   11.6896  C     
9    C        14.3314   -3.8764   10.7624  C     
10   N        15.5901   -4.2272   10.3964  N     
11   C        16.5097   -3.6421    9.6487  C     
12   O        16.3006   -2.6001    9.0343  O     
13   N        17.6671   -4.2875    9.6498  N     
14   C        18.8759   -3.9819    9.1211  C     
15   C        19.2180   -2.8874    8.2913  C     
16   N        20.5175   -2.7428    7.8855  N     
17   C        21.5005   -3.6106    8.2641  C     
18   C        21.1656   -4.7026    9.0796  C     
19   N        19.8739   -4.8390    9.4677  N     
20   C        22.7174   -3.4024    7.8668  C     
21   N        23.7837   -3.1962    7.4664  N     
22   C        13.6465   -2.7051   10.3506  C     
23   C        12.3698   -2.4188   10.8480  C     
24   C        11.7540   -3.2712   11.7898  C     
25   C        10.4679   -3.0018   12.3059  C     
26   H        10.0988   -5.7317   14.2464  H     
27   H        12.3055   -6.1690   13.4495  H     
28   H        14.1981   -5.5998   11.9800  H     
29   H        15.8828   -5.0566   10.8105  H     
30   H        17.6673   -5.0969   10.1832  H     
31   H        18.5284   -2.1978    7.9752  H     
32   H        21.8516   -5.3872    9.4053  H     
33   H        14.0697   -2.0529    9.6840  H     
34   H        11.8945   -1.5728   10.5195  H     
35   H         9.9958   -2.1432   12.0199  H     
@<TRIPOS>BOND
     1    1    2 1
     2    2    3 2
     3    2    4 1
     4    4    5 ar
     5    5    6 ar
     6    6    7 ar
     7    7    8 ar
     8    8    9 ar
     9    9   10 1
    10   10   11 am
    11   11   12 2
    12   11   13 am
    13   13   14 1
    14   14   15 ar
    15   15   16 ar
    16   16   17 ar
    17   17   18 ar
    18   18   19 ar
    19   14   19 ar
    20   17   20 1
    21   20   21 3
    22    9   22 ar
    23   22   23 ar
    24   23   24 ar
    25    7   24 ar
    26   24   25 ar
    27    4   25 ar
    28    5   26 1
    29    6   27 1
    30    8   28 1
    31   10   29 1
    32   13   30 1
    33   15   31 1
    34   18   32 1
    35   22   33 1
    36   23   34 1
    37   25   35 1
@<TRIPOS>PROPERTY_DATA
  Total_Score	| 2.2922
  Crash		| -4.0835
  Polar		| 2.6280
  FragIndex	| 1
  FragRMSD	| 1.162

