@<TRIPOS>MOLECULE
BindingDB_91956
 34 36 0 0 0
SMALL
NO_CHARGES


@<TRIPOS>ATOM
1    O        24.0577   -2.4077    5.9197  O     
2    C        23.8726   -3.3952    6.8345  C     
3    C        24.9755   -4.2162    7.1417  C     
4    C        24.8477   -5.2568    8.0750  C     
5    C        23.6111   -5.4902    8.7068  C     
6    C        22.4915   -4.6765    8.4132  C     
7    C        21.2467   -4.9101    9.0440  C     
8    C        20.1132   -4.1164    8.7531  C     
9    N        18.9443   -4.4237    9.3897  N     
10   C        17.7822   -3.7905    9.4153  C     
11   O        17.5947   -2.7188    8.8430  O     
12   N        16.8345   -4.4029   10.1143  N     
13   C        15.5580   -4.0162   10.3795  C     
14   C        14.7561   -4.8320   11.2150  C     
15   N        13.5053   -4.4091   11.5667  N     
16   C        12.9850   -3.2422   11.1180  C     
17   C        13.7524   -2.4481   10.2372  C     
18   N        15.0046   -2.8606    9.9151  N     
19   C        11.8253   -2.8765   11.5579  C     
20   N        10.7946   -2.5309   11.9490  N     
21   C        20.2585   -3.0679    7.8187  C     
22   C        21.4885   -2.8247    7.1816  C     
23   C        22.6214   -3.6158    7.4689  C     
24   H        23.8022   -1.5735    6.3734  H     
25   H        25.8809   -4.0498    6.6903  H     
26   H        25.6573   -5.8442    8.2995  H     
27   H        23.5427   -6.2603    9.3831  H     
28   H        21.1493   -5.6818    9.7063  H     
29   H        18.9643   -5.2488    9.8932  H     
30   H        17.0966   -5.2449   10.5169  H     
31   H        15.1093   -5.7145   11.5887  H     
32   H        13.3997   -1.5653    9.8688  H     
33   H        19.4673   -2.4721    7.5761  H     
34   H        21.5464   -2.0707    6.4989  H     
@<TRIPOS>BOND
     1    1    2 1
     2    2    3 ar
     3    3    4 ar
     4    4    5 ar
     5    5    6 ar
     6    6    7 ar
     7    7    8 ar
     8    8    9 1
     9    9   10 am
    10   10   11 2
    11   10   12 am
    12   12   13 1
    13   13   14 ar
    14   14   15 ar
    15   15   16 ar
    16   16   17 ar
    17   17   18 ar
    18   13   18 ar
    19   16   19 1
    20   19   20 3
    21    8   21 ar
    22   21   22 ar
    23   22   23 ar
    24    2   23 ar
    25    6   23 ar
    26    1   24 1
    27    3   25 1
    28    4   26 1
    29    5   27 1
    30    7   28 1
    31    9   29 1
    32   12   30 1
    33   14   31 1
    34   17   32 1
    35   21   33 1
    36   22   34 1
@<TRIPOS>PROPERTY_DATA
  Total_Score	| 2.1279
  Crash		| -1.5226
  Polar		| 1.3263
  FragIndex	| 1
  FragRMSD	| 1.097

