@<TRIPOS>MOLECULE
BindingDB_91958
 29 30 0 0 0
SMALL
NO_CHARGES


@<TRIPOS>ATOM
1    O        23.7527   -3.0601    7.6922  O     
2    N        23.0643   -3.9160    8.4036  N     
3    C        21.7069   -3.8427    8.5151  C     
4    C        20.9743   -4.7703    9.2980  C     
5    C        19.5765   -4.6522    9.4515  C     
6    C        18.8692   -3.5952    8.8251  C     
7    N        17.5233   -3.4028    8.9527  N     
8    C        16.7549   -3.7043    9.9862  C     
9    N        15.4511   -3.5174    9.8660  N     
10   C        14.4679   -3.9576   10.6922  C     
11   N        14.7209   -4.7803   11.7590  N     
12   C        13.7599   -5.2942   12.5663  C     
13   C        12.4106   -4.9724   12.2889  C     
14   C        11.4447   -5.4503   13.0092  C     
15   N        10.6109   -5.8971   13.6606  N     
16   N        12.1431   -4.1647   11.2287  N     
17   C        13.1182   -3.6540   10.4289  C     
18   O        17.2659   -4.1572   11.0132  O     
19   C        19.5784   -2.7173    7.9903  C     
20   C        20.9745   -2.8279    7.8466  C     
21   O        23.7150   -4.7466    8.9820  O     
22   H        21.4491   -5.5406    9.7776  H     
23   H        19.0735   -5.3411   10.0171  H     
24   H        17.0849   -2.9951    8.1867  H     
25   H        15.1556   -3.0425    9.0666  H     
26   H        14.0239   -5.9063   13.3438  H     
27   H        12.8580   -3.0601    9.6398  H     
28   H        19.0835   -1.9638    7.5006  H     
29   H        21.4534   -2.1426    7.2498  H     
@<TRIPOS>BOND
     1    1    2 1
     2    2    3 am
     3    3    4 ar
     4    4    5 ar
     5    5    6 ar
     6    6    7 1
     7    7    8 am
     8    8    9 am
     9    9   10 1
    10   10   11 ar
    11   11   12 ar
    12   12   13 ar
    13   13   14 1
    14   14   15 3
    15   13   16 ar
    16   16   17 ar
    17   10   17 ar
    18    8   18 2
    19    6   19 ar
    20   19   20 ar
    21    3   20 ar
    22    2   21 2
    23    4   22 1
    24    5   23 1
    25    7   24 1
    26    9   25 1
    27   12   26 1
    28   17   27 1
    29   19   28 1
    30   20   29 1
@<TRIPOS>PROPERTY_DATA
  Total_Score	| 2.2133
  Crash		| -0.6484
  Polar		| 0.5008
  FragIndex	| 1
  FragRMSD	| 1.232

