@<TRIPOS>MOLECULE
BindingDB_50224621
 38 39 0 0 0
SMALL
NO_CHARGES


@<TRIPOS>ATOM
1    C        20.6742   -5.6823   10.1473  C     
2    C        20.9083   -4.8595    9.0297  C     
3    C        20.0140   -3.8068    8.7018  C     
4    C        18.8717   -3.5901    9.5113  C     
5    C        18.7180   -4.3544   10.6932  C     
6    C        19.5446   -5.4661   10.9562  C     
7    N        19.2151   -6.3835   11.9128  N     
8    O        20.1615   -3.0746    7.5455  O     
9    C        21.4826   -2.6169    7.2142  C     
10   C        18.2700   -7.3185   11.7903  C     
11   N        17.9482   -2.6482    9.1252  N     
12   C        16.6329   -2.6361    9.3258  C     
13   N        15.9924   -3.6729    9.8493  N     
14   O        16.0659   -1.6019    9.0111  O     
15   C        14.7776   -3.8022   10.4355  C     
16   N        14.6191   -4.9802   11.0953  N     
17   C        13.5281   -5.2997   11.8322  C     
18   C        12.4929   -4.3544   11.9312  C     
19   N        12.6273   -3.1684   11.2769  N     
20   C        13.7306   -2.8579   10.5408  C     
21   C        11.4356   -4.5959   12.6521  C     
22   N        10.5111   -4.8233   13.2971  N     
23   O        17.6054   -7.4340   10.7670  O     
24   C        18.0613   -8.2709   12.8576  C     
25   H        21.2988   -6.4729   10.3276  H     
26   H        21.7056   -5.0668    8.4264  H     
27   H        17.9455   -4.1468   11.3389  H     
28   H        19.7655   -6.4275   12.7044  H     
29   H        21.9492   -2.0796    8.0465  H     
30   H        21.4142   -1.9383    6.3610  H     
31   H        22.1220   -3.4565    6.9290  H     
32   H        18.3066   -1.9058    8.6172  H     
33   H        16.5532   -4.4703    9.9448  H     
34   H        13.4899   -6.2012   12.3193  H     
35   H        13.7819   -1.9543   10.0849  H     
36   H        18.9962   -8.7927   13.0799  H     
37   H        17.3077   -9.0182   12.5874  H     
38   H        17.7150   -7.7549   13.7568  H     
@<TRIPOS>BOND
     1    1    2 2
     2    1    6 1
     3    2    3 1
     4    3    4 2
     5    3    8 1
     6    4    5 1
     7    4   11 1
     8    5    6 2
     9    6    7 1
    10    7   10 am
    11    8    9 1
    12   10   23 2
    13   10   24 1
    14   11   12 am
    15   12   13 am
    16   12   14 2
    17   13   15 1
    18   15   16 2
    19   15   20 1
    20   16   17 1
    21   17   18 2
    22   18   19 1
    23   18   21 1
    24   19   20 2
    25   21   22 3
    26    1   25 1
    27    2   26 1
    28    5   27 1
    29    7   28 1
    30    9   29 1
    31    9   30 1
    32    9   31 1
    33   11   32 1
    34   13   33 1
    35   17   34 1
    36   20   35 1
    37   24   36 1
    38   24   37 1
    39   24   38 1
@<TRIPOS>PROPERTY_DATA
  Total_Score	| 3.3657
  Crash		| -1.5381
  Polar		| 2.1722
  FragIndex	| 1
  FragRMSD	| 1.060

