@<TRIPOS>MOLECULE
BindingDB_91959
 33 35 0 0 0
SMALL
NO_CHARGES


@<TRIPOS>ATOM
1    O        16.5105   -1.9853    8.3881  O     
2    C        16.1068   -2.7871    9.2184  C     
3    N        14.8266   -2.6586    9.5456  N     
4    C        14.0730   -3.3945   10.4046  C     
5    C        12.7238   -3.0390   10.6116  C     
6    N        11.9700   -3.7605   11.4825  N     
7    C        12.4554   -4.8235   12.1732  C     
8    C        13.7943   -5.2054   11.9608  C     
9    N        14.5408   -4.4716   11.0970  N     
10   C        11.6832   -5.4686   12.9919  C     
11   N        11.0100   -6.0543   13.7150  N     
12   N        16.9180   -3.6879    9.7602  N     
13   C        18.2308   -3.9133    9.5355  C     
14   C        19.1446   -3.3115    8.6809  C     
15   C        20.3651   -3.9394    8.9068  C     
16   N        20.1360   -4.8719    9.8518  N     
17   N        18.8947   -4.8571   10.2173  N     
18   C        21.6293   -3.6851    8.3101  C     
19   C        22.7830   -4.3801    8.7585  C     
20   C        24.0360   -4.1634    8.1604  C     
21   C        24.1672   -3.2357    7.1151  C     
22   C        23.0410   -2.5253    6.6669  C     
23   C        21.7859   -2.7453    7.2606  C     
24   H        14.3623   -1.9229    9.1101  H     
25   H        12.3011   -2.2487   10.1198  H     
26   H        14.2173   -6.0044   12.4439  H     
27   H        16.5268   -4.2682   10.4251  H     
28   H        18.9552   -2.5504    8.0301  H     
29   H        22.7229   -5.0623    9.5194  H     
30   H        24.8529   -4.6872    8.4806  H     
31   H        25.0788   -3.0822    6.6796  H     
32   H        23.1334   -1.8500    5.9061  H     
33   H        20.9903   -2.2149    6.9012  H     
@<TRIPOS>BOND
     1    1    2 2
     2    2    3 am
     3    3    4 1
     4    4    5 ar
     5    5    6 ar
     6    6    7 ar
     7    7    8 ar
     8    8    9 ar
     9    4    9 ar
    10    7   10 1
    11   10   11 3
    12    2   12 am
    13   12   13 1
    14   13   14 ar
    15   14   15 ar
    16   15   16 ar
    17   16   17 ar
    18   13   17 ar
    19   15   18 1
    20   18   19 ar
    21   19   20 ar
    22   20   21 ar
    23   21   22 ar
    24   22   23 ar
    25   18   23 ar
    26    3   24 1
    27    5   25 1
    28    8   26 1
    29   12   27 1
    30   14   28 1
    31   19   29 1
    32   20   30 1
    33   21   31 1
    34   22   32 1
    35   23   33 1
@<TRIPOS>PROPERTY_DATA
  Total_Score	| 6.5367
  Crash		| -0.2304
  Polar		| 3.3054
  FragIndex	| 1
  FragRMSD	| 0.557

