@<TRIPOS>MOLECULE
BindingDB_91928
 46 47 0 0 0
SMALL
NO_CHARGES


@<TRIPOS>ATOM
1    C        17.6330   -8.4835   13.2867  C     
2    N        16.9480   -7.4722   12.4293  N     
3    C        15.4629   -7.5185   12.5746  C     
4    C        17.4528   -7.3730   11.0157  C     
5    C        17.6328   -5.9163   10.4973  C     
6    N        18.8291   -5.1837   10.7935  N     
7    C        19.5538   -5.5142   12.0041  C     
8    C        19.3588   -4.3793    9.8228  C     
9    C        20.7487   -4.5185    9.5876  C     
10   C        21.3914   -3.8167    8.5681  C     
11   C        20.6485   -2.9508    7.7621  C     
12   Cl       21.4863   -2.0583    6.6031  Cl    
13   C        19.2684   -2.7788    7.9790  C     
14   C        18.5856   -3.5008    8.9882  C     
15   N        17.3580   -2.9631    9.3508  N     
16   C        16.0985   -3.3836    9.2451  C     
17   O        15.7787   -4.5303    8.9621  O     
18   N        15.1607   -2.5918    9.7335  N     
19   C        14.1260   -3.0700   10.4773  C     
20   C        12.7866   -2.6459   10.3183  C     
21   N        11.8199   -3.2411   11.0698  N     
22   C        12.0949   -4.1904   12.0112  C     
23   C        13.4380   -4.5742   12.2118  C     
24   N        14.3873   -4.0180   11.4282  N     
25   C        11.1513   -4.7416   12.7082  C     
26   N        10.3415   -5.2540   13.3427  N     
27   H        18.7154   -8.4123   13.1853  H     
28   H        17.3807   -8.3116   14.3361  H     
29   H        17.3257   -9.4971   13.0233  H     
30   H        15.1814   -7.3555   13.6184  H     
31   H        15.0620   -8.4820   12.2496  H     
32   H        14.9868   -6.7384   11.9781  H     
33   H        18.4205   -7.8761   10.9047  H     
34   H        16.7438   -7.8902   10.3634  H     
35   H        17.4264   -5.9371    9.4255  H     
36   H        16.8880   -5.3078   10.9440  H     
37   H        20.2946   -4.7569   12.2639  H     
38   H        20.0665   -6.4740   11.8878  H     
39   H        18.8700   -5.5870   12.8569  H     
40   H        21.3217   -5.1478   10.1473  H     
41   H        22.3996   -3.9337    8.4304  H     
42   H        18.7774   -2.0744    7.4229  H     
43   H        17.4420   -2.0913    9.7612  H     
44   H        15.0860   -1.7062    9.3300  H     
45   H        12.5270   -1.9561    9.6048  H     
46   H        13.7132   -5.2568   12.9262  H     
@<TRIPOS>BOND
     1    1    2 1
     2    2    3 1
     3    2    4 1
     4    4    5 1
     5    5    6 1
     6    6    7 1
     7    6    8 1
     8    8    9 ar
     9    9   10 ar
    10   10   11 ar
    11   11   12 1
    12   11   13 ar
    13   13   14 ar
    14    8   14 ar
    15   14   15 1
    16   15   16 am
    17   16   17 2
    18   16   18 am
    19   18   19 1
    20   19   20 ar
    21   20   21 ar
    22   21   22 ar
    23   22   23 ar
    24   23   24 ar
    25   19   24 ar
    26   22   25 1
    27   25   26 3
    28    1   27 1
    29    1   28 1
    30    1   29 1
    31    3   30 1
    32    3   31 1
    33    3   32 1
    34    4   33 1
    35    4   34 1
    36    5   35 1
    37    5   36 1
    38    7   37 1
    39    7   38 1
    40    7   39 1
    41    9   40 1
    42   10   41 1
    43   13   42 1
    44   15   43 1
    45   18   44 1
    46   20   45 1
    47   23   46 1
@<TRIPOS>PROPERTY_DATA
  Total_Score	| 2.0114
  Crash		| -4.4477
  Polar		| 0.6333
  FragIndex	| 1
  FragRMSD	| 1.089

