@<TRIPOS>MOLECULE
BindingDB_91941
 32 34 0 0 0
SMALL
NO_CHARGES


@<TRIPOS>ATOM
1    O        16.7268   -5.0027   10.6730  O     
2    C        16.4609   -4.1027    9.8839  C     
3    N        15.2590   -3.5419    9.8313  N     
4    C        14.1774   -3.8533   10.5884  C     
5    C        13.0115   -3.0581   10.5341  C     
6    N        11.9554   -3.3774   11.3252  N     
7    C        11.9626   -4.4448   12.1642  C     
8    C        13.1143   -5.2496   12.2215  C     
9    N        14.1640   -4.9185   11.4386  N     
10   C        10.9248   -4.7055   12.8938  C     
11   N        10.0105   -4.9466   13.5443  N     
12   N        17.3889   -3.6196    9.0805  N     
13   C        18.7195   -3.8882    9.0801  C     
14   C        19.5528   -3.1227    8.2398  C     
15   C        20.9488   -3.3471    8.2433  C     
16   C        21.8039   -2.5970    7.4075  C     
17   C        23.1920   -2.8067    7.4341  C     
18   C        23.7416   -3.7752    8.2901  C     
19   C        22.9015   -4.5437    9.1179  C     
20   C        21.5029   -4.3375    9.0992  C     
21   C        20.6273   -5.0802    9.9148  C     
22   N        19.2953   -4.8344    9.8740  N     
23   H        15.1596   -2.7924    9.2247  H     
24   H        12.9539   -2.2356    9.9254  H     
25   H        13.1762   -6.0717   12.8287  H     
26   H        17.0853   -2.9804    8.4225  H     
27   H        19.1415   -2.4041    7.6362  H     
28   H        21.4221   -1.8901    6.7749  H     
29   H        23.8030   -2.2612    6.8241  H     
30   H        24.7513   -3.9268    8.3037  H     
31   H        23.3209   -5.2459    9.7334  H     
32   H        20.9754   -5.8049   10.5417  H     
@<TRIPOS>BOND
     1    1    2 2
     2    2    3 am
     3    3    4 1
     4    4    5 ar
     5    5    6 ar
     6    6    7 ar
     7    7    8 ar
     8    8    9 ar
     9    4    9 ar
    10    7   10 1
    11   10   11 3
    12    2   12 am
    13   12   13 1
    14   13   14 ar
    15   14   15 ar
    16   15   16 ar
    17   16   17 ar
    18   17   18 ar
    19   18   19 ar
    20   19   20 ar
    21   15   20 ar
    22   20   21 ar
    23   21   22 ar
    24   13   22 ar
    25    3   23 1
    26    5   24 1
    27    8   25 1
    28   12   26 1
    29   14   27 1
    30   16   28 1
    31   17   29 1
    32   18   30 1
    33   19   31 1
    34   21   32 1
@<TRIPOS>PROPERTY_DATA
  Total_Score	| 2.4146
  Crash		| -0.7608
  Polar		| 0.0123
  FragIndex	| 1
  FragRMSD	| 1.132

