@<TRIPOS>MOLECULE
BindingDB_91962
 24 25 0 0 0
SMALL
NO_CHARGES


@<TRIPOS>ATOM
1    O        22.0434   -3.9327    8.9385  O     
2    C        20.7992   -3.4985    8.6286  C     
3    N        20.4857   -2.7733    7.5463  N     
4    N        19.2082   -2.5447    7.5429  N     
5    C        18.6193   -3.0969    8.6149  C     
6    N        17.2798   -3.0075    8.8025  N     
7    C        16.5659   -3.4983    9.8013  C     
8    N        15.2491   -3.3319    9.7594  N     
9    C        14.3318   -3.8403   10.6214  C     
10   N        14.6753   -4.6739   11.6427  N     
11   C        13.7887   -5.2326   12.4972  C     
12   C        12.4230   -4.9416   12.3218  C     
13   C        11.5289   -5.4769   13.0919  C     
14   N        10.7620   -5.9811   13.7802  N     
15   N        12.0601   -4.1070   11.3123  N     
16   C        12.9617   -3.5455   10.4623  C     
17   O        17.1117   -4.0740   10.7343  O     
18   C        19.6325   -3.7172    9.3406  C     
19   H        21.9370   -4.4836    9.7423  H     
20   H        16.7786   -2.5618    8.0992  H     
21   H        14.9021   -2.8064    9.0192  H     
22   H        14.1270   -5.8590   13.2322  H     
23   H        12.6344   -2.9238    9.7196  H     
24   H        19.5566   -4.2508   10.2074  H     
@<TRIPOS>BOND
     1    1    2 1
     2    2    3 ar
     3    3    4 ar
     4    4    5 ar
     5    5    6 1
     6    6    7 am
     7    7    8 am
     8    8    9 1
     9    9   10 ar
    10   10   11 ar
    11   11   12 ar
    12   12   13 1
    13   13   14 3
    14   12   15 ar
    15   15   16 ar
    16    9   16 ar
    17    7   17 2
    18    5   18 ar
    19    2   18 ar
    20    1   19 1
    21    6   20 1
    22    8   21 1
    23   11   22 1
    24   16   23 1
    25   18   24 1
@<TRIPOS>PROPERTY_DATA
  Total_Score	| 1.5599
  Crash		| -0.9108
  Polar		| 0.7989
  FragIndex	| 1
  FragRMSD	| 1.383

