@<TRIPOS>MOLECULE
BindingDB_91894
 28 29 0 0 0
SMALL
NO_CHARGES


@<TRIPOS>ATOM
1    Cl       21.8507   -2.7226    6.8505  Cl    
2    C        20.8468   -3.3145    8.0777  C     
3    C        21.3086   -4.3296    8.9355  C     
4    C        20.4834   -4.8125    9.9661  C     
5    C        19.1814   -4.2956   10.1344  C     
6    C        18.4441   -4.7385   11.1219  C     
7    N        17.7643   -5.1091   11.9689  N     
8    C        18.6962   -3.2971    9.2424  C     
9    N        17.4326   -2.7743    9.3412  N     
10   C        16.3380   -3.5198    9.3911  C     
11   O        16.3813   -4.6814    9.0007  O     
12   N        15.2983   -3.0117   10.0352  N     
13   C        14.3079   -3.6574   10.7042  C     
14   C        14.2188   -5.0477   10.9542  C     
15   N        13.2348   -5.5239   11.7536  N     
16   C        12.3052   -4.7277   12.3325  C     
17   C        12.3732   -3.3427   12.0946  C     
18   N        13.3742   -2.8693   11.3043  N     
19   C        11.4309   -5.2893   13.1076  C     
20   N        10.6795   -5.8288   13.7883  N     
21   C        19.5478   -2.7967    8.2374  C     
22   H        22.2500   -4.7120    8.8233  H     
23   H        20.8471   -5.5386   10.5902  H     
24   H        17.3682   -1.8646    9.6642  H     
25   H        15.3100   -2.0495   10.1523  H     
26   H        14.9055   -5.7149   10.6066  H     
27   H        11.7050   -2.6916   12.5176  H     
28   H        19.2144   -2.0632    7.6077  H     
@<TRIPOS>BOND
     1    1    2 1
     2    2    3 ar
     3    3    4 ar
     4    4    5 ar
     5    5    6 1
     6    6    7 3
     7    5    8 ar
     8    8    9 1
     9    9   10 am
    10   10   11 2
    11   10   12 am
    12   12   13 1
    13   13   14 ar
    14   14   15 ar
    15   15   16 ar
    16   16   17 ar
    17   17   18 ar
    18   13   18 ar
    19   16   19 1
    20   19   20 3
    21    8   21 ar
    22    2   21 ar
    23    3   22 1
    24    4   23 1
    25    9   24 1
    26   12   25 1
    27   14   26 1
    28   17   27 1
    29   21   28 1
@<TRIPOS>PROPERTY_DATA
  Total_Score	| 2.4953
  Crash		| -1.0777
  Polar		| 0.6312
  FragIndex	| 1
  FragRMSD	| 1.413

