@<TRIPOS>MOLECULE
BindingDB_15652
 43 45 0 0 0
SMALL
NO_CHARGES


@<TRIPOS>ATOM
1    C        40.1794   52.5119  -81.4513  C     
2    C        41.8720   51.3071  -80.5712  C     
3    C        40.7685   50.4150  -80.3765  C     
4    N        41.5743   52.4733  -81.1316  N     
5    C        42.5808   53.4665  -81.5052  C     
6    C        41.9974   55.5403  -80.0574  C     
7    C        41.9492   56.4445  -81.3128  C     
8    C        41.4899   55.6361  -82.5478  C     
9    C        42.3372   54.3546  -82.7732  C     
10   C        42.9791   54.3672  -80.2884  C     
11   O        43.0071   50.9341  -80.3082  O     
12   C        39.5414   51.2527  -80.7910  C     
13   C        38.6316   51.5069  -79.6664  C     
14   O        38.9060   52.4163  -78.8863  O     
15   N        37.5596   50.7394  -79.5160  N     
16   C        36.5045   50.7850  -78.6422  C     
17   C        34.4572   49.6308  -77.9158  C     
18   C        35.6146   49.6884  -78.7098  C     
19   C        36.1975   51.8316  -77.7343  C     
20   C        35.0420   51.7775  -76.9342  C     
21   C        34.1639   50.6824  -77.0283  C     
22   Br       32.6361   50.6090  -75.9766  Br    
23   H        39.7112   53.4340  -81.0934  H     
24   H        40.0603   52.4726  -82.5429  H     
25   H        40.8839   49.5412  -81.0239  H     
26   H        40.7343   50.0886  -79.3321  H     
27   H        43.4768   52.8840  -81.7633  H     
28   H        42.3291   56.1299  -79.1957  H     
29   H        40.9946   55.1546  -79.8384  H     
30   H        41.2615   57.2788  -81.1405  H     
31   H        42.9419   56.8686  -81.4952  H     
32   H        40.4398   55.3742  -82.4232  H     
33   H        41.5562   56.2725  -83.4294  H     
34   H        43.3129   54.6792  -83.1488  H     
35   H        41.8837   53.7606  -83.5683  H     
36   H        43.0338   53.7753  -79.3717  H     
37   H        43.9746   54.7807  -80.4670  H     
38   H        38.9960   50.7100  -81.5710  H     
39   H        37.5023   50.0054  -80.1486  H     
40   H        33.8258   48.8283  -77.9931  H     
41   H        35.8001   48.9139  -79.3523  H     
42   H        36.7871   52.6582  -77.6557  H     
43   H        34.8366   52.5437  -76.2877  H     
@<TRIPOS>BOND
     1    1    4 1
     2    1   12 1
     3    2    3 1
     4    2    4 1
     5    2   11 2
     6    3   12 1
     7    4    5 1
     8    5    9 1
     9    5   10 1
    10    6    7 1
    11    6   10 1
    12    7    8 1
    13    8    9 1
    14   12   13 1
    15   13   14 2
    16   13   15 am
    17   15   16 1
    18   16   18 1
    19   16   19 2
    20   17   18 2
    21   17   21 1
    22   19   20 1
    23   20   21 2
    24   21   22 1
    25    1   23 1
    26    1   24 1
    27    3   25 1
    28    3   26 1
    29    5   27 1
    30    6   28 1
    31    6   29 1
    32    7   30 1
    33    7   31 1
    34    8   32 1
    35    8   33 1
    36    9   34 1
    37    9   35 1
    38   10   36 1
    39   10   37 1
    40   12   38 1
    41   15   39 1
    42   17   40 1
    43   18   41 1
    44   19   42 1
    45   20   43 1
@<TRIPOS>PROPERTY_DATA
  Total_Score	| 3.3715
  Crash		| -1.3987
  Polar		| 0.0006
  FragIndex	| 1
  FragRMSD	| 1.483

