@<TRIPOS>MOLECULE
BindingDB_50321674
 35 38 0 0 0
SMALL
NO_CHARGES


@<TRIPOS>ATOM
1    N         6.1931   -3.1168   18.6063  N     
2    C         5.6709   -4.1204   17.9144  C     
3    C         4.3848   -4.4815   18.1890  C     
4    C         5.5883   -2.4352   19.5243  C     
5    C         4.2761   -2.7729   19.7985  C     
6    N         3.6859   -3.7886   19.1226  N     
7    C         2.4195   -3.8970   19.5887  C     
8    C         2.2917   -2.9137   20.5740  C     
9    N         3.4388   -2.2320   20.6925  N     
10   C         6.4507   -4.7170   16.9192  C     
11   C         7.7550   -4.3800   16.5561  C     
12   N         8.1268   -5.1750   15.5438  N     
13   N         7.1723   -5.9895   15.2289  N     
14   C         6.1278   -5.7534   16.0398  C     
15   C         1.3778   -4.7926   19.2147  C     
16   C         0.4783   -5.2941   20.1851  C     
17   C        -0.5424   -6.1969   19.8364  C     
18   C        -0.6889   -6.6201   18.4979  C     
19   C         0.1884   -6.1030   17.5188  C     
20   C         1.2050   -5.1927   17.8701  C     
21   C        -1.6970   -7.6416   18.1410  C     
22   O        -1.0577   -8.8968   17.9294  O     
23   H         3.9553   -5.2526   17.7313  H     
24   H         6.0536   -1.7009   20.0092  H     
25   H         1.4600   -2.7185   21.1321  H     
26   H         8.3384   -3.6517   16.9702  H     
27   H         8.9867   -5.1451   15.0982  H     
28   H         5.2408   -6.2557   15.9941  H     
29   H         0.5817   -5.0419   21.1718  H     
30   H        -1.1558   -6.5579   20.5698  H     
31   H         0.0905   -6.3964   16.5467  H     
32   H         1.8080   -4.8090   17.1419  H     
33   H        -2.4445   -7.7617   18.9252  H     
34   H        -2.2274   -7.3650   17.2253  H     
35   H        -0.5192   -9.0616   18.7349  H     
@<TRIPOS>BOND
     1    1    2 1
     2    1    4 2
     3    2    3 2
     4    2   10 1
     5    3    6 1
     6    4    5 1
     7    5    6 1
     8    5    9 2
     9    6    7 1
    10    7    8 2
    11    7   15 1
    12    8    9 1
    13   10   11 2
    14   10   14 1
    15   11   12 1
    16   12   13 1
    17   13   14 2
    18   15   16 2
    19   15   20 1
    20   16   17 1
    21   17   18 2
    22   18   19 1
    23   18   21 1
    24   19   20 2
    25   21   22 1
    26    3   23 1
    27    4   24 1
    28    8   25 1
    29   11   26 1
    30   12   27 1
    31   14   28 1
    32   16   29 1
    33   17   30 1
    34   19   31 1
    35   20   32 1
    36   21   33 1
    37   21   34 1
    38   22   35 1
@<TRIPOS>PROPERTY_DATA
  Total_Score	| 3.7490
  Crash		| -0.7096
  Polar		| 2.0559
  FragIndex	| 1
  FragRMSD	| 1.013

