@<TRIPOS>MOLECULE
BindingDB_50321673
 33 36 0 0 0
SMALL
NO_CHARGES


@<TRIPOS>ATOM
1    N         6.1565   -3.1311   18.6192  N     
2    C         5.6528   -4.1034   17.8673  C     
3    C         4.3650   -4.4720   18.0962  C     
4    C         5.5366   -2.4812   19.5488  C     
5    C         4.2203   -2.8289   19.7828  C     
6    N         3.6518   -3.8136   19.0484  N     
7    C         2.3806   -3.9418   19.4921  C     
8    C         2.2194   -3.0070   20.5170  C     
9    N         3.3581   -2.3236   20.6758  N     
10   C         6.4618   -4.6706   16.8765  C     
11   C         6.1785   -5.6493   15.9307  C     
12   N         7.2705   -5.8405   15.1726  N     
13   N         8.2303   -5.0675   15.5595  N     
14   C         7.7896   -4.3369   16.5975  C     
15   C         1.3367   -4.7842   19.0281  C     
16   C         0.5512   -5.5323   19.9360  C     
17   C        -0.4776   -6.3693   19.4699  C     
18   C        -0.7526   -6.4440   18.0897  C     
19   C        -0.0032   -5.6684   17.1843  C     
20   C         1.0396   -4.8464   17.6458  C     
21   N        -1.7208   -7.2591   17.6321  N     
22   H         3.9410   -5.2117   17.5800  H     
23   H         5.9876   -1.7644   20.0724  H     
24   H         1.3605   -2.8377   21.0443  H     
25   H         5.2983   -6.1563   15.8068  H     
26   H         7.3398   -6.4713   14.4367  H     
27   H         8.3528   -3.6437   17.0970  H     
28   H         0.7309   -5.4889   20.9435  H     
29   H        -1.0129   -6.9334   20.1363  H     
30   H        -0.2026   -5.7028   16.1818  H     
31   H         1.5605   -4.2815   16.9714  H     
32   H        -1.8982   -7.3148   16.6793  H     
33   H        -2.2298   -7.8069   18.2493  H     
@<TRIPOS>BOND
     1    1    2 1
     2    1    4 2
     3    2    3 2
     4    2   10 1
     5    3    6 1
     6    4    5 1
     7    5    6 1
     8    5    9 2
     9    6    7 1
    10    7    8 2
    11    7   15 1
    12    8    9 1
    13   10   11 2
    14   10   14 1
    15   11   12 1
    16   12   13 1
    17   13   14 2
    18   15   16 2
    19   15   20 1
    20   16   17 1
    21   17   18 2
    22   18   19 1
    23   18   21 1
    24   19   20 2
    25    3   22 1
    26    4   23 1
    27    8   24 1
    28   11   25 1
    29   12   26 1
    30   14   27 1
    31   16   28 1
    32   17   29 1
    33   19   30 1
    34   20   31 1
    35   21   32 1
    36   21   33 1
@<TRIPOS>PROPERTY_DATA
  Total_Score	| 3.6999
  Crash		| -0.6023
  Polar		| 1.0134
  FragIndex	| 1
  FragRMSD	| 1.159

