@<TRIPOS>MOLECULE
BindingDB_50321657
 33 36 0 0 0
SMALL
NO_CHARGES


@<TRIPOS>ATOM
1    C         6.5424   -4.9535   17.1421  C     
2    N         6.2490   -3.3123   18.7548  N     
3    C         5.7179   -4.2787   18.0226  C     
4    C         4.3979   -4.5687   18.1613  C     
5    C         5.5957   -2.5841   19.6032  C     
6    C         4.2492   -2.8523   19.7710  C     
7    N         3.6740   -3.8452   19.0476  N     
8    C         2.3916   -3.9358   19.4518  C     
9    C         2.2301   -2.9687   20.4418  C     
10   N         3.3791   -2.3050   20.6242  N     
11   C         1.3643   -4.7994   19.0146  C     
12   C         1.0883   -4.9247   17.6364  C     
13   C         0.0566   -5.7706   17.1949  C     
14   C        -0.7074   -6.4985   18.1262  C     
15   C        -0.4466   -6.3739   19.5018  C     
16   C         0.5693   -5.5116   19.9463  C     
17   C         7.7308   -5.5629   17.6097  C     
18   C         8.5602   -6.2428   16.7012  C     
19   N         8.2220   -6.3025   15.3879  N     
20   C         7.0853   -5.7379   14.9009  C     
21   C         6.2171   -5.0515   15.7708  C     
22   H         3.9822   -5.3135   17.6453  H     
23   H         6.0575   -1.8718   20.1142  H     
24   H         1.3722   -2.7800   20.9532  H     
25   H         1.6219   -4.3850   16.9496  H     
26   H        -0.1371   -5.8529   16.1953  H     
27   H        -1.4449   -7.1254   17.7979  H     
28   H        -0.9937   -6.9125   20.1753  H     
29   H         0.7387   -5.4291   20.9541  H     
30   H         7.9956   -5.5331   18.6021  H     
31   H         9.4179   -6.6934   17.0269  H     
32   H         6.8674   -5.8009   13.9041  H     
33   H         5.3651   -4.6301   15.3962  H     
@<TRIPOS>BOND
     1    1    3 1
     2    1   17 2
     3    1   21 1
     4    2    3 1
     5    2    5 2
     6    3    4 2
     7    4    7 1
     8    5    6 1
     9    6    7 1
    10    6   10 2
    11    7    8 1
    12    8    9 2
    13    8   11 1
    14    9   10 1
    15   11   12 2
    16   11   16 1
    17   12   13 1
    18   13   14 2
    19   14   15 1
    20   15   16 2
    21   17   18 1
    22   18   19 2
    23   19   20 1
    24   20   21 2
    25    4   22 1
    26    5   23 1
    27    9   24 1
    28   12   25 1
    29   13   26 1
    30   14   27 1
    31   15   28 1
    32   16   29 1
    33   17   30 1
    34   18   31 1
    35   20   32 1
    36   21   33 1
@<TRIPOS>PROPERTY_DATA
  Total_Score	| 4.8393
  Crash		| -0.6994
  Polar		| 1.0163
  FragIndex	| 1
  FragRMSD	| 0.965

