@<TRIPOS>MOLECULE
BindingDB_50321655
 35 39 0 0 0
SMALL
NO_CHARGES


@<TRIPOS>ATOM
1    N         6.0876   -3.2594   18.5935  N     
2    C         5.6263   -4.1692   17.7432  C     
3    C         4.3107   -4.5070   17.8390  C     
4    C         5.4061   -2.6507   19.5063  C     
5    C         4.0669   -2.9766   19.6096  C     
6    N         3.5379   -3.8990   18.7733  N     
7    C         2.2350   -4.0356   19.1057  C     
8    C         2.0093   -3.1649   20.1673  C     
9    N         3.1451   -2.5157   20.4653  N     
10   C         6.5017   -4.6882   16.7926  C     
11   C         6.2409   -5.5394   15.7167  C     
12   N         7.3886   -5.7444   15.0527  N     
13   N         8.3627   -5.0966   15.6120  N     
14   C         7.8692   -4.4306   16.6713  C     
15   C         1.2324   -4.8175   18.4891  C     
16   N         0.0278   -5.7900   16.8693  N     
17   C         1.0667   -4.9769   17.1087  C     
18   C        -0.4983   -6.1742   18.0434  C     
19   C         0.2213   -5.5798   19.0811  C     
20   C        -0.1251   -5.8221   20.4220  C     
21   C        -1.2035   -6.6878   20.7029  C     
22   C        -1.9097   -7.3099   19.6510  C     
23   C        -1.5688   -7.0473   18.3089  C     
24   H         3.9170   -5.1988   17.2443  H     
25   H         5.8292   -1.9732   20.0881  H     
26   H         1.1087   -2.9785   20.6190  H     
27   H         5.3488   -5.9516   15.4591  H     
28   H         7.4762   -6.2949   14.2611  H     
29   H         8.4267   -3.8376   17.2851  H     
30   H        -0.2804   -6.0478   15.9834  H     
31   H         1.6195   -4.5308   16.3820  H     
32   H         0.4001   -5.3992   21.1949  H     
33   H        -1.4579   -6.8850   21.6729  H     
34   H        -2.6890   -7.9332   19.8597  H     
35   H        -2.0842   -7.4829   17.5388  H     
@<TRIPOS>BOND
     1    1    2 1
     2    1    4 2
     3    2    3 2
     4    2   10 1
     5    3    6 1
     6    4    5 1
     7    5    6 1
     8    5    9 2
     9    6    7 1
    10    7    8 2
    11    7   15 1
    12    8    9 1
    13   10   11 2
    14   10   14 1
    15   11   12 1
    16   12   13 1
    17   13   14 2
    18   15   17 2
    19   15   19 1
    20   16   17 1
    21   16   18 1
    22   18   19 2
    23   18   23 1
    24   19   20 1
    25   20   21 2
    26   21   22 1
    27   22   23 2
    28    3   24 1
    29    4   25 1
    30    8   26 1
    31   11   27 1
    32   12   28 1
    33   14   29 1
    34   16   30 1
    35   17   31 1
    36   20   32 1
    37   21   33 1
    38   22   34 1
    39   23   35 1
@<TRIPOS>PROPERTY_DATA
  Total_Score	| 5.0050
  Crash		| -0.2285
  Polar		| 2.2678
  FragIndex	| 1
  FragRMSD	| 1.119

