@<TRIPOS>MOLECULE
BindingDB_50321676
 30 33 0 0 0
SMALL
NO_CHARGES


@<TRIPOS>ATOM
1    N         6.3175   -3.0932   18.7179  N     
2    C         5.9169   -3.9851   17.8145  C     
3    C         4.6043   -4.3475   17.8701  C     
4    C         5.6042   -2.5465   19.6464  C     
5    C         4.2727   -2.9099   19.7007  C     
6    N         3.7849   -3.7877   18.7938  N     
7    C         2.4632   -3.9323   19.0543  C     
8    C         2.1973   -3.1388   20.1677  C     
9    N         3.3136   -2.4911   20.5389  N     
10   C         6.8640   -4.4457   16.8654  C     
11   C         1.4740   -4.6489   18.3319  C     
12   C         0.2703   -5.1641   18.8062  C     
13   N        -0.4127   -5.7107   17.7844  N     
14   N         0.2833   -5.5583   16.7008  N     
15   C         1.4327   -4.9172   16.9722  C     
16   C         8.1440   -3.8383   16.7629  C     
17   C         9.0848   -4.2753   15.8068  C     
18   N         8.7689   -5.2930   14.9728  N     
19   C         7.5727   -5.9194   15.0244  C     
20   C         6.6017   -5.5170   15.9636  C     
21   H         4.2246   -5.0085   17.2402  H     
22   H         5.9949   -1.8831   20.2700  H     
23   H         1.2863   -2.9986   20.6090  H     
24   H        -0.0558   -5.1507   19.7737  H     
25   H         0.0038   -5.8433   15.8170  H     
26   H         2.1147   -4.6378   16.2676  H     
27   H         8.4222   -3.0622   17.3701  H     
28   H         9.9982   -3.8264   15.7366  H     
29   H         7.3790   -6.6845   14.3773  H     
30   H         5.7220   -6.0269   15.9718  H     
@<TRIPOS>BOND
     1    1    2 1
     2    1    4 2
     3    2    3 2
     4    2   10 1
     5    3    6 1
     6    4    5 1
     7    5    6 1
     8    5    9 2
     9    6    7 1
    10    7    8 2
    11    7   11 1
    12    8    9 1
    13   10   16 2
    14   10   20 1
    15   11   12 1
    16   11   15 2
    17   12   13 2
    18   13   14 1
    19   14   15 1
    20   16   17 1
    21   17   18 2
    22   18   19 1
    23   19   20 2
    24    3   21 1
    25    4   22 1
    26    8   23 1
    27   12   24 1
    28   14   25 1
    29   15   26 1
    30   16   27 1
    31   17   28 1
    32   19   29 1
    33   20   30 1
@<TRIPOS>PROPERTY_DATA
  Total_Score	| 5.3214
  Crash		| -0.4853
  Polar		| 2.4881
  FragIndex	| 1
  FragRMSD	| 0.875

