@<TRIPOS>MOLECULE
BindingDB_50321651
 35 38 0 0 0
SMALL
NO_CHARGES


@<TRIPOS>ATOM
1    N         3.2571   -3.3496   19.6568  N     
2    C         2.8526   -4.1323   18.6623  C     
3    C         3.8039   -4.6342   17.8275  C     
4    C         4.4746   -2.9463   19.8523  C     
5    C         5.4473   -3.4138   18.9837  C     
6    N         5.0944   -4.2880   18.0106  N     
7    C         6.2079   -4.6129   17.3171  C     
8    C         7.2391   -3.8580   17.8845  C     
9    N         6.7557   -3.1406   18.9194  N     
10   C         1.4879   -4.4108   18.4994  C     
11   C         6.3802   -5.5129   16.2387  C     
12   C         5.5926   -6.6217   15.9163  C     
13   N         6.1250   -7.2429   14.8554  N     
14   N         7.1877   -6.5980   14.4869  N     
15   C         7.4036   -5.5532   15.2999  C     
16   C         0.8903   -4.5016   17.2147  C     
17   C        -0.4662   -4.8171   17.0507  C     
18   C        -1.2904   -5.0198   18.1720  C     
19   C        -0.7124   -4.9285   19.4624  C     
20   C         0.6514   -4.6255   19.6221  C     
21   C        -2.7165   -5.3726   17.9622  C     
22   O        -3.2280   -4.6691   16.8288  O     
23   H         3.5613   -5.2378   17.0804  H     
24   H         4.7023   -2.3590   20.6196  H     
25   H         8.2218   -3.8716   17.6061  H     
26   H         4.7836   -6.9681   16.4386  H     
27   H         7.7443   -6.8405   13.7289  H     
28   H         8.1837   -4.8974   15.2162  H     
29   H         1.4436   -4.3338   16.3670  H     
30   H        -0.8627   -4.8876   16.1096  H     
31   H        -1.2821   -5.0911   20.2951  H     
32   H         1.0318   -4.5927   20.5713  H     
33   H        -2.7960   -6.4474   17.7776  H     
34   H        -3.3399   -5.1190   18.8324  H     
35   H        -3.7767   -5.3198   16.3270  H     
@<TRIPOS>BOND
     1    1    2 1
     2    1    4 2
     3    2    3 2
     4    2   10 1
     5    3    6 1
     6    4    5 1
     7    5    6 1
     8    5    9 2
     9    6    7 1
    10    7    8 2
    11    7   11 1
    12    8    9 1
    13   10   16 2
    14   10   20 1
    15   11   12 1
    16   11   15 2
    17   12   13 2
    18   13   14 1
    19   14   15 1
    20   16   17 1
    21   17   18 2
    22   18   19 1
    23   18   21 1
    24   19   20 2
    25   21   22 1
    26    3   23 1
    27    4   24 1
    28    8   25 1
    29   12   26 1
    30   14   27 1
    31   15   28 1
    32   16   29 1
    33   17   30 1
    34   19   31 1
    35   20   32 1
    36   21   33 1
    37   21   34 1
    38   22   35 1
@<TRIPOS>PROPERTY_DATA
  Total_Score	| 5.6865
  Crash		| -0.4042
  Polar		| 3.0922
  FragIndex	| 1
  FragRMSD	| 1.235

