@<TRIPOS>MOLECULE
BindingDB_50321672
 33 36 0 0 0
SMALL
NO_CHARGES


@<TRIPOS>ATOM
1    N         6.0942   -3.1984   18.5492  N     
2    C         5.5326   -4.1815   17.8577  C     
3    C         4.2496   -4.5158   18.1660  C     
4    C         5.5477   -2.5297   19.5080  C     
5    C         4.2450   -2.8412   19.8280  C     
6    N         3.6044   -3.8278   19.1510  N     
7    C         2.3592   -3.9256   19.6835  C     
8    C         2.2948   -2.9631   20.6943  C     
9    N         3.4561   -2.3017   20.7639  N     
10   C         6.2864   -4.7683   16.8439  C     
11   C         7.6141   -4.4831   16.5150  C     
12   N         7.9595   -5.2435   15.4690  N     
13   N         6.9726   -5.9930   15.1030  N     
14   C         5.9284   -5.7397   15.9119  C     
15   C         1.2502   -4.7243   19.3088  C     
16   C         0.4235   -5.3172   20.2951  C     
17   C        -0.7485   -6.0077   19.9379  C     
18   C        -1.1206   -6.1045   18.5879  C     
19   C        -0.3127   -5.5216   17.5901  C     
20   C         0.8700   -4.8404   17.9526  C     
21   N        -0.6679   -5.6084   16.3006  N     
22   H         3.7831   -5.2544   17.6927  H     
23   H         6.0438   -1.8123   19.9780  H     
24   H         1.4834   -2.7631   21.2838  H     
25   H         8.2293   -3.8115   16.9771  H     
26   H         8.8323   -5.2265   15.0385  H     
27   H         5.0156   -6.1952   15.8283  H     
28   H         0.6664   -5.2527   21.2877  H     
29   H        -1.3381   -6.4324   20.6594  H     
30   H        -1.9768   -6.6053   18.3302  H     
31   H         1.4253   -4.3872   17.2232  H     
32   H        -0.0957   -5.2397   15.6118  H     
33   H        -1.4815   -6.0740   16.0487  H     
@<TRIPOS>BOND
     1    1    2 1
     2    1    4 2
     3    2    3 2
     4    2   10 1
     5    3    6 1
     6    4    5 1
     7    5    6 1
     8    5    9 2
     9    6    7 1
    10    7    8 2
    11    7   15 1
    12    8    9 1
    13   10   11 2
    14   10   14 1
    15   11   12 1
    16   12   13 1
    17   13   14 2
    18   15   16 2
    19   15   20 1
    20   16   17 1
    21   17   18 2
    22   18   19 1
    23   19   20 2
    24   19   21 1
    25    3   22 1
    26    4   23 1
    27    8   24 1
    28   11   25 1
    29   12   26 1
    30   14   27 1
    31   16   28 1
    32   17   29 1
    33   18   30 1
    34   20   31 1
    35   21   32 1
    36   21   33 1
@<TRIPOS>PROPERTY_DATA
  Total_Score	| 3.6026
  Crash		| -0.9776
  Polar		| 1.0143
  FragIndex	| 1
  FragRMSD	| 0.875

