@<TRIPOS>MOLECULE
BindingDB_50321681
 37 40 0 0 0
SMALL
NO_CHARGES


@<TRIPOS>ATOM
1    N         3.2838   -3.2434   19.7767  N     
2    C         2.8028   -4.1496   18.9275  C     
3    C         3.6560   -4.6571   17.9983  C     
4    C         4.4917   -2.7877   19.7877  C     
5    C         5.3767   -3.2998   18.8596  C     
6    N         4.9467   -4.2451   17.9848  N     
7    C         6.0072   -4.5801   17.2144  C     
8    C         7.0618   -3.7663   17.6404  C     
9    N         6.6625   -2.9917   18.6578  N     
10   C         1.4757   -4.5705   19.0665  C     
11   C         6.1324   -5.5349   16.1740  C     
12   C         5.3059   -6.6097   15.8490  C     
13   N         5.8189   -7.2541   14.7851  N     
14   N         6.9077   -6.6501   14.4288  N     
15   C         7.1561   -5.6088   15.2359  C     
16   C         0.6594   -4.8753   17.9490  C     
17   C        -0.6778   -5.3244   18.0898  C     
18   C        -1.1867   -5.5213   19.3908  C     
19   C        -0.4013   -5.2145   20.5144  C     
20   C         0.9069   -4.7267   20.3524  C     
21   C        -1.4842   -5.6315   16.8745  C     
22   N        -2.9420   -5.4931   17.0343  N     
23   H         3.3537   -5.3517   17.3581  H     
24   H         4.7779   -2.1215   20.4594  H     
25   H         8.0069   -3.7601   17.2605  H     
26   H         4.4567   -6.8926   16.3405  H     
27   H         7.4686   -6.9139   13.6824  H     
28   H         7.9652   -4.9902   15.1613  H     
29   H         1.0350   -4.7506   17.0074  H     
30   H        -2.1324   -5.8778   19.5302  H     
31   H        -0.7769   -5.3497   21.4595  H     
32   H         1.4539   -4.5204   21.1917  H     
33   H        -1.2010   -4.9636   16.0559  H     
34   H        -1.2652   -6.6552   16.5555  H     
35   H        -3.2893   -6.2156   17.6645  H     
36   H        -3.4019   -5.6035   16.1204  H     
37   H        -3.1677   -4.5742   17.4216  H     
@<TRIPOS>BOND
     1    1    2 1
     2    1    4 2
     3    2    3 2
     4    2   10 1
     5    3    6 1
     6    4    5 1
     7    5    6 1
     8    5    9 2
     9    6    7 1
    10    7    8 2
    11    7   11 1
    12    8    9 1
    13   10   16 2
    14   10   20 1
    15   11   12 1
    16   11   15 2
    17   12   13 2
    18   13   14 1
    19   14   15 1
    20   16   17 1
    21   17   18 2
    22   17   21 1
    23   18   19 1
    24   19   20 2
    25   21   22 1
    26    3   23 1
    27    4   24 1
    28    8   25 1
    29   12   26 1
    30   14   27 1
    31   15   28 1
    32   16   29 1
    33   18   30 1
    34   19   31 1
    35   20   32 1
    36   21   33 1
    37   21   34 1
    38   22   35 1
    39   22   36 1
    40   22   37 1
@<TRIPOS>PROPERTY_DATA
  Total_Score	| 4.2420
  Crash		| -0.4850
  Polar		| 1.9593
  FragIndex	| 1
  FragRMSD	| 1.239

