@<TRIPOS>MOLECULE
BindingDB_50321650
 37 40 0 0 0
SMALL
NO_CHARGES


@<TRIPOS>ATOM
1    N         3.7104   -2.9698   19.7700  N     
2    C         3.2750   -4.0676   19.1562  C     
3    C         4.1375   -4.6616   18.2800  C     
4    C         4.8606   -2.4023   19.6084  C     
5    C         5.7123   -2.9734   18.6813  C     
6    N         5.3405   -4.0906   18.0064  N     
7    C         6.3380   -4.3902   17.1304  C     
8    C         7.3141   -3.4095   17.3440  C     
9    N         6.9129   -2.5484   18.2877  N     
10   C         2.0001   -4.5791   19.4871  C     
11   C         6.4651   -5.3941   16.1157  C     
12   C         5.5747   -6.3949   15.7255  C     
13   N         6.0921   -7.0814   14.6908  N     
14   N         7.2512   -6.5790   14.4029  N     
15   C         7.5286   -5.5569   15.2243  C     
16   C         1.3364   -4.1960   20.6852  C     
17   C         0.1088   -4.7754   21.0686  C     
18   C        -0.5096   -5.7508   20.2605  C     
19   C         0.1128   -6.1038   19.0446  C     
20   C         1.3287   -5.5137   18.6540  C     
21   C        -1.7423   -6.4501   20.6874  C     
22   N        -1.3648   -7.7339   21.2939  N     
23   H         3.9247   -5.5424   17.8837  H     
24   H         5.1134   -1.5857   20.1083  H     
25   H         8.1991   -3.3101   16.8413  H     
26   H         4.6540   -6.5858   16.1203  H     
27   H         7.8285   -6.8896   13.6790  H     
28   H         8.3811   -4.9953   15.1731  H     
29   H         1.7549   -3.5104   21.3190  H     
30   H        -0.3118   -4.4992   21.9607  H     
31   H        -0.3140   -6.8085   18.4332  H     
32   H         1.7014   -5.7862   17.7441  H     
33   H        -2.3159   -5.8660   21.4146  H     
34   H        -2.3898   -6.6376   19.8295  H     
35   H        -0.7077   -8.2236   20.6762  H     
36   H        -2.1959   -8.3128   21.4348  H     
37   H        -0.9136   -7.5665   22.1960  H     
@<TRIPOS>BOND
     1    1    2 1
     2    1    4 2
     3    2    3 2
     4    2   10 1
     5    3    6 1
     6    4    5 1
     7    5    6 1
     8    5    9 2
     9    6    7 1
    10    7    8 2
    11    7   11 1
    12    8    9 1
    13   10   16 2
    14   10   20 1
    15   11   12 1
    16   11   15 2
    17   12   13 2
    18   13   14 1
    19   14   15 1
    20   16   17 1
    21   17   18 2
    22   18   19 1
    23   18   21 1
    24   19   20 2
    25   21   22 1
    26    3   23 1
    27    4   24 1
    28    8   25 1
    29   12   26 1
    30   14   27 1
    31   15   28 1
    32   16   29 1
    33   17   30 1
    34   19   31 1
    35   20   32 1
    36   21   33 1
    37   21   34 1
    38   22   35 1
    39   22   36 1
    40   22   37 1
@<TRIPOS>PROPERTY_DATA
  Total_Score	| 4.5509
  Crash		| -0.5960
  Polar		| 2.3632
  FragIndex	| 1
  FragRMSD	| 1.068

