@<TRIPOS>MOLECULE
BindingDB_50321662
 38 42 0 0 0
SMALL
NO_CHARGES


@<TRIPOS>ATOM
1    N         2.8477   -3.4762   19.4210  N     
2    C         2.7535   -4.2128   18.3249  C     
3    C         3.9152   -4.5185   17.6732  C     
4    C         3.9332   -3.0218   19.9502  C     
5    C         5.1175   -3.3463   19.3190  C     
6    N         5.1037   -4.1043   18.1940  N     
7    C         6.3940   -4.2717   17.8180  C     
8    C         7.1639   -3.5821   18.7613  C     
9    N         6.3619   -3.0235   19.6772  N     
10   C         6.9544   -5.0216   16.7508  C     
11   C         8.1308   -4.5791   16.0980  C     
12   C         8.7082   -5.3313   15.0520  C     
13   C         8.1289   -6.5549   14.6667  C     
14   C         6.9817   -7.0309   15.3335  C     
15   C         6.3968   -6.2689   16.3740  C     
16   C         1.4757   -4.6006   17.9218  C     
17   C         1.1236   -5.1332   16.6660  C     
18   N        -0.1883   -5.4001   16.6172  N     
19   C         0.2671   -4.5666   18.6343  C     
20   C        -0.7368   -5.0708   17.7955  C     
21   C        -2.0762   -5.1903   18.2047  C     
22   C        -2.4191   -4.7702   19.5083  C     
23   C        -1.4315   -4.2535   20.3707  C     
24   C        -0.0935   -4.1491   19.9414  C     
25   H         3.9037   -5.0576   16.8352  H     
26   H         3.9216   -2.4839   20.7836  H     
27   H         8.1832   -3.5353   18.7799  H     
28   H         8.5739   -3.6915   16.3518  H     
29   H         9.5520   -4.9977   14.5721  H     
30   H         8.5487   -7.1081   13.9105  H     
31   H         6.5700   -7.9311   15.0694  H     
32   H         5.5864   -6.6517   16.8700  H     
33   H         1.7582   -5.2885   15.8772  H     
34   H        -0.6599   -5.7541   15.8458  H     
35   H        -2.7879   -5.5665   17.5759  H     
36   H        -3.3917   -4.8454   19.8313  H     
37   H        -1.6906   -3.9432   21.3143  H     
38   H         0.5979   -3.7690   20.5852  H     
@<TRIPOS>BOND
     1    1    2 1
     2    1    4 2
     3    2    3 2
     4    2   16 1
     5    3    6 1
     6    4    5 1
     7    5    6 1
     8    5    9 2
     9    6    7 1
    10    7    8 2
    11    7   10 1
    12    8    9 1
    13   10   11 2
    14   10   15 1
    15   11   12 1
    16   12   13 2
    17   13   14 1
    18   14   15 2
    19   16   17 2
    20   16   19 1
    21   17   18 1
    22   18   20 1
    23   19   20 2
    24   19   24 1
    25   20   21 1
    26   21   22 2
    27   22   23 1
    28   23   24 2
    29    3   25 1
    30    4   26 1
    31    8   27 1
    32   11   28 1
    33   12   29 1
    34   13   30 1
    35   14   31 1
    36   15   32 1
    37   17   33 1
    38   18   34 1
    39   21   35 1
    40   22   36 1
    41   23   37 1
    42   24   38 1
@<TRIPOS>PROPERTY_DATA
  Total_Score	| 3.5567
  Crash		| -0.7944
  Polar		| 0.8407
  FragIndex	| 1
  FragRMSD	| 1.303

