@<TRIPOS>MOLECULE
BindingDB_50321680
 33 36 0 0 0
SMALL
NO_CHARGES


@<TRIPOS>ATOM
1    N         3.4153   -3.3019   19.5963  N     
2    C         2.8968   -4.1028   18.6446  C     
3    C         3.7875   -4.5561   17.7089  C     
4    C         4.6424   -2.9631   19.7643  C     
5    C         5.5452   -3.5185   18.8950  C     
6    N         5.0913   -4.2658   17.8548  N     
7    C         6.1658   -4.6506   17.1286  C     
8    C         7.2850   -4.1347   17.8038  C     
9    N         6.8949   -3.4538   18.9013  N     
10   C         1.5211   -4.4223   18.7269  C     
11   C         6.2115   -5.3039   15.8864  C     
12   C         5.3357   -5.1425   14.8070  C     
13   N         5.8240   -5.7878   13.7226  N     
14   N         6.9828   -6.2921   14.0542  N     
15   C         7.2673   -6.0458   15.3474  C     
16   C         0.7664   -4.8532   17.5904  C     
17   C        -0.5955   -5.1469   17.6464  C     
18   C        -1.2948   -5.0263   18.8811  C     
19   C        -0.5835   -4.6352   20.0320  C     
20   C         0.7822   -4.3022   19.9666  C     
21   N        -1.2612   -5.4013   16.5086  N     
22   H         3.5178   -5.1514   16.9614  H     
23   H         4.9461   -2.3515   20.4876  H     
24   H         8.2494   -4.2339   17.5264  H     
25   H         4.4890   -4.5666   14.8048  H     
26   H         7.5130   -6.8469   13.4689  H     
27   H         8.1117   -6.3532   15.8541  H     
28   H         1.2148   -4.9849   16.6724  H     
29   H        -2.2819   -5.2391   18.9379  H     
30   H        -1.0676   -4.5574   20.9337  H     
31   H         1.2405   -3.9946   20.8329  H     
32   H        -2.2137   -5.5296   16.5244  H     
33   H        -0.7781   -5.4282   15.6609  H     
@<TRIPOS>BOND
     1    1    2 1
     2    1    4 2
     3    2    3 2
     4    2   10 1
     5    3    6 1
     6    4    5 1
     7    5    6 1
     8    5    9 2
     9    6    7 1
    10    7    8 2
    11    7   11 1
    12    8    9 1
    13   10   16 2
    14   10   20 1
    15   11   12 1
    16   11   15 2
    17   12   13 2
    18   13   14 1
    19   14   15 1
    20   16   17 1
    21   17   18 2
    22   17   21 1
    23   18   19 1
    24   19   20 2
    25    3   22 1
    26    4   23 1
    27    8   24 1
    28   12   25 1
    29   14   26 1
    30   15   27 1
    31   16   28 1
    32   18   29 1
    33   19   30 1
    34   20   31 1
    35   21   32 1
    36   21   33 1
@<TRIPOS>PROPERTY_DATA
  Total_Score	| 5.0408
  Crash		| -0.2960
  Polar		| 2.1214
  FragIndex	| 1
  FragRMSD	| 1.159

