@<TRIPOS>MOLECULE
BindingDB_50321679
 33 36 0 0 0
SMALL
NO_CHARGES


@<TRIPOS>ATOM
1    N         6.2729   -3.1735   18.8869  N     
2    C         5.8939   -4.0778   17.9801  C     
3    C         4.5722   -4.4145   17.9863  C     
4    C         5.5307   -2.5812   19.7616  C     
5    C         4.1861   -2.8970   19.7507  C     
6    N         3.7148   -3.7966   18.8497  N     
7    C         2.3650   -3.8631   19.0163  C     
8    C         2.0798   -3.0080   20.0901  C     
9    N         3.1980   -2.4073   20.5133  N     
10   C         6.8766   -4.5980   17.0938  C     
11   C         1.3493   -4.5352   18.2797  C     
12   C        -0.0064   -4.6508   18.6058  C     
13   N        -0.6768   -5.2562   17.6054  N     
14   N         0.1942   -5.5473   16.6813  N     
15   C         1.4215   -5.1528   17.0271  C     
16   C         8.2366   -4.1736   17.2105  C     
17   C         9.2285   -4.6531   16.3430  C     
18   C         8.9198   -5.5915   15.3552  C     
19   C         7.5984   -6.0358   15.2045  C     
20   C         6.5964   -5.5399   16.0576  C     
21   N         9.8846   -6.0542   14.5541  N     
22   H         4.2303   -5.1164   17.3816  H     
23   H         5.8987   -1.9074   20.3903  H     
24   H         1.1617   -2.8061   20.4843  H     
25   H        -0.4445   -4.2995   19.4675  H     
26   H        -0.0131   -5.9592   15.8230  H     
27   H         2.2355   -5.2272   16.4099  H     
28   H         8.5156   -3.5104   17.9337  H     
29   H        10.1930   -4.3210   16.4449  H     
30   H         7.3619   -6.7126   14.4780  H     
31   H         5.6490   -5.8941   15.8963  H     
32   H         9.6818   -6.7094   13.8714  H     
33   H        10.7786   -5.6970   14.6495  H     
@<TRIPOS>BOND
     1    1    2 1
     2    1    4 2
     3    2    3 2
     4    2   10 1
     5    3    6 1
     6    4    5 1
     7    5    6 1
     8    5    9 2
     9    6    7 1
    10    7    8 2
    11    7   11 1
    12    8    9 1
    13   10   16 2
    14   10   20 1
    15   11   12 1
    16   11   15 2
    17   12   13 2
    18   13   14 1
    19   14   15 1
    20   16   17 1
    21   17   18 2
    22   18   19 1
    23   18   21 1
    24   19   20 2
    25    3   22 1
    26    4   23 1
    27    8   24 1
    28   12   25 1
    29   14   26 1
    30   15   27 1
    31   16   28 1
    32   17   29 1
    33   19   30 1
    34   20   31 1
    35   21   32 1
    36   21   33 1
@<TRIPOS>PROPERTY_DATA
  Total_Score	| 4.7115
  Crash		| -1.2413
  Polar		| 2.4510
  FragIndex	| 1
  FragRMSD	| 0.857

