@<TRIPOS>MOLECULE
BindingDB_50321664
 33 36 0 0 0
SMALL
NO_CHARGES


@<TRIPOS>ATOM
1    C         6.4509   -4.6121   16.9318  C     
2    N         6.0504   -3.0522   18.6655  N     
3    C         5.5717   -4.0123   17.8718  C     
4    C         4.2563   -4.3363   18.0639  C     
5    C         5.4304   -2.4064   19.5980  C     
6    C         4.1320   -2.7907   19.8408  C     
7    N         3.5561   -3.7462   19.0658  N     
8    C         2.2954   -3.9234   19.5238  C     
9    C         2.1503   -3.0376   20.5957  C     
10   N         3.2896   -2.3544   20.7836  N     
11   C         1.2190   -4.6940   19.0175  C     
12   C         0.3843   -5.4433   19.8939  C     
13   C        -0.7959   -6.0423   19.4067  C     
14   C        -1.1555   -5.9070   18.0523  C     
15   C        -0.3282   -5.1727   17.1642  C     
16   C         0.8632   -4.5935   17.6519  C     
17   C         7.7651   -4.0999   16.7195  C     
18   C         8.6432   -4.6925   15.7939  C     
19   C         8.2255   -5.8232   15.0745  C     
20   N         6.9804   -6.3304   15.2976  N     
21   C         6.1081   -5.7759   16.1815  C     
22   H         3.7987   -5.0065   17.4849  H     
23   H         5.8862   -1.7126   20.1484  H     
24   H         1.3135   -2.9072   21.1661  H     
25   H         0.6072   -5.5245   20.8883  H     
26   H        -1.4050   -6.5824   20.0464  H     
27   H        -2.0322   -6.3120   17.7114  H     
28   H        -0.5960   -5.0552   16.1884  H     
29   H         1.4381   -4.0315   17.0034  H     
30   H         8.1032   -3.2730   17.2205  H     
31   H         9.5703   -4.2960   15.6392  H     
32   H         8.8437   -6.2626   14.3842  H     
33   H         5.2037   -6.2347   16.2908  H     
@<TRIPOS>BOND
     1    1    3 1
     2    1   17 2
     3    1   21 1
     4    2    3 1
     5    2    5 2
     6    3    4 2
     7    4    7 1
     8    5    6 1
     9    6    7 1
    10    6   10 2
    11    7    8 1
    12    8    9 2
    13    8   11 1
    14    9   10 1
    15   11   12 2
    16   11   16 1
    17   12   13 1
    18   13   14 2
    19   14   15 1
    20   15   16 2
    21   17   18 1
    22   18   19 2
    23   19   20 1
    24   20   21 2
    25    4   22 1
    26    5   23 1
    27    9   24 1
    28   12   25 1
    29   13   26 1
    30   14   27 1
    31   15   28 1
    32   16   29 1
    33   17   30 1
    34   18   31 1
    35   19   32 1
    36   21   33 1
@<TRIPOS>PROPERTY_DATA
  Total_Score	| 4.4269
  Crash		| -0.6682
  Polar		| 0.9265
  FragIndex	| 1
  FragRMSD	| 0.850

