@<TRIPOS>MOLECULE
BindingDB_50321677
 31 34 0 0 0
SMALL
NO_CHARGES


@<TRIPOS>ATOM
1    N         6.3555   -3.3407   18.8407  N     
2    C         5.9184   -4.2408   17.9620  C     
3    C         4.5804   -4.5121   17.9628  C     
4    C         5.6329   -2.6885   19.6940  C     
5    C         4.2717   -2.9353   19.6854  C     
6    N         3.7635   -3.8275   18.8001  N     
7    C         2.4224   -3.8519   18.9846  C     
8    C         2.1637   -2.9691   20.0383  C     
9    N         3.3075   -2.4033   20.4455  N     
10   C         6.8447   -4.8603   17.1011  C     
11   C         1.4113   -4.5173   18.2489  C     
12   C         0.0747   -4.6802   18.6079  C     
13   N        -0.5870   -5.2723   17.5998  N     
14   N         0.2543   -5.4940   16.6399  N     
15   C         1.4789   -5.0615   16.9699  C     
16   C         8.1313   -5.2474   17.5628  C     
17   C         9.0610   -5.8833   16.7128  C     
18   C         8.7264   -6.1469   15.3752  C     
19   C         7.4675   -5.7568   14.8868  C     
20   C         6.5451   -5.1139   15.7364  C     
21   H         4.2083   -5.2414   17.4024  H     
22   H         6.0400   -2.0337   20.3170  H     
23   H         1.2465   -2.7375   20.4188  H     
24   H        -0.3554   -4.3860   19.4884  H     
25   H         0.0230   -5.8977   15.7869  H     
26   H         2.2857   -5.0747   16.3487  H     
27   H         8.4081   -5.0816   18.5321  H     
28   H         9.9802   -6.1564   17.0715  H     
29   H         9.3954   -6.6121   14.7592  H     
30   H         7.2268   -5.9387   13.9096  H     
31   H         5.6500   -4.8206   15.3416  H     
@<TRIPOS>BOND
     1    1    2 1
     2    1    4 2
     3    2    3 2
     4    2   10 1
     5    3    6 1
     6    4    5 1
     7    5    6 1
     8    5    9 2
     9    6    7 1
    10    7    8 2
    11    7   11 1
    12    8    9 1
    13   10   16 2
    14   10   20 1
    15   11   12 1
    16   11   15 2
    17   12   13 2
    18   13   14 1
    19   14   15 1
    20   16   17 1
    21   17   18 2
    22   18   19 1
    23   19   20 2
    24    3   21 1
    25    4   22 1
    26    8   23 1
    27   12   24 1
    28   14   25 1
    29   15   26 1
    30   16   27 1
    31   17   28 1
    32   18   29 1
    33   19   30 1
    34   20   31 1
@<TRIPOS>PROPERTY_DATA
  Total_Score	| 5.9960
  Crash		| -0.4465
  Polar		| 2.5317
  FragIndex	| 1
  FragRMSD	| 0.949

