@<TRIPOS>MOLECULE
BindingDB_50351189
 39 41 0 0 0
SMALL
NO_CHARGES


@<TRIPOS>ATOM
1    C        -3.7752  -32.4332    5.2898  C     
2    C        -5.0744  -32.5275    5.8689  C     
3    C        -5.9586  -31.4259    5.7641  C     
4    C        -3.3987  -31.2380    4.6226  C     
5    C        -4.2874  -30.1490    4.5002  C     
6    C        -5.5702  -30.2532    5.0958  C     
7    N        -6.4379  -29.2072    5.0299  N     
8    C        -6.1220  -28.0556    4.4023  C     
9    N        -4.9144  -27.9278    3.7968  N     
10   C        -3.9976  -28.9287    3.8160  C     
11   N        -2.8425  -28.7170    3.1632  N     
12   N        -7.0152  -27.0567    4.4033  N     
13   C        -5.5519  -33.6938    6.5230  C     
14   C        -6.5436  -34.5021    5.9220  C     
15   C        -7.0306  -35.6545    6.5694  C     
16   C        -6.5310  -36.0170    7.8417  C     
17   C        -5.5600  -35.2007    8.4531  C     
18   C        -5.0689  -34.0529    7.8047  C     
19   S        -7.0601  -37.4717    8.6384  S     
20   C        -5.7002  -38.6595    8.6852  C     
21   O        -7.4231  -37.1280   10.1471  O     
22   O        -8.3329  -38.1419    7.9605  O     
23   C        -2.8203  -33.5715    5.3302  C     
24   H        -6.9015  -31.4756    6.1664  H     
25   H        -2.4630  -31.1631    4.2203  H     
26   H        -2.6770  -27.8726    2.7195  H     
27   H        -2.1695  -29.4080    3.1344  H     
28   H        -6.8142  -26.2213    3.9568  H     
29   H        -7.8580  -27.1718    4.8760  H     
30   H        -6.9179  -34.2531    5.0011  H     
31   H        -7.7388  -36.2282    6.1097  H     
32   H        -5.1919  -35.4458    9.3743  H     
33   H        -4.3653  -33.4793    8.2735  H     
34   H        -5.3725  -38.8910    7.6705  H     
35   H        -6.0305  -39.5748    9.1773  H     
36   H        -4.8636  -38.2373    9.2439  H     
37   H        -2.5183  -33.7645    6.3594  H     
38   H        -1.9204  -33.3839    4.7415  H     
39   H        -3.2953  -34.4646    4.9244  H     
@<TRIPOS>BOND
     1    1    2 2
     2    1    4 1
     3    1   23 1
     4    2    3 1
     5    2   13 1
     6    3    6 2
     7    4    5 2
     8    5    6 1
     9    5   10 1
    10    6    7 1
    11    7    8 2
    12    8    9 1
    13    8   12 1
    14    9   10 2
    15   10   11 1
    16   13   14 2
    17   13   18 1
    18   14   15 1
    19   15   16 2
    20   16   17 1
    21   16   19 1
    22   17   18 2
    23   19   20 1
    24   19   21 2
    25   19   22 2
    26    3   24 1
    27    4   25 1
    28   11   26 1
    29   11   27 1
    30   12   28 1
    31   12   29 1
    32   14   30 1
    33   15   31 1
    34   17   32 1
    35   18   33 1
    36   20   34 1
    37   20   35 1
    38   20   36 1
    39   23   37 1
    40   23   38 1
    41   23   39 1
@<TRIPOS>PROPERTY_DATA
  Total_Score	| 5.6221
  Crash		| -0.7258
  Polar		| 3.2592
  FragIndex	| 1
  FragRMSD	| 0.877

