@<TRIPOS>MOLECULE
BindingDB_50351180
 38 40 0 0 0
SMALL
NO_CHARGES


@<TRIPOS>ATOM
1    C        -3.8939  -32.4584    5.2875  C     
2    C        -5.1895  -32.5122    5.8830  C     
3    C        -6.0404  -31.3885    5.7883  C     
4    C        -3.4937  -31.2882    4.5990  C     
5    C        -4.3484  -30.1761    4.4797  C     
6    C        -5.6211  -30.2336    5.0974  C     
7    N        -6.4492  -29.1588    5.0278  N     
8    C        -6.1167  -28.0150    4.3915  C     
9    N        -4.9074  -27.9296    3.7763  N     
10   C        -4.0232  -28.9634    3.7910  C     
11   N        -2.8660  -28.7815    3.1367  N     
12   N        -6.9891  -26.9985    4.3868  N     
13   C        -5.6755  -33.6521    6.5790  C     
14   C        -6.0822  -34.8081    5.8719  C     
15   C        -6.5775  -35.9426    6.5619  C     
16   C        -6.6653  -35.9064    7.9721  C     
17   C        -6.2548  -34.7608    8.6808  C     
18   C        -5.7722  -33.6340    7.9882  C     
19   C        -6.9933  -37.0665    5.8717  C     
20   C        -6.0435  -38.0543    5.4089  C     
21   O        -8.1944  -37.2978    5.8074  O     
22   C        -2.9473  -33.5975    5.3916  C     
23   H        -6.9750  -31.4012    6.2130  H     
24   H        -2.5706  -31.2514    4.1631  H     
25   H        -2.6622  -27.9388    2.7069  H     
26   H        -2.2117  -29.4868    3.1032  H     
27   H        -6.7655  -26.1662    3.9391  H     
28   H        -7.8378  -27.0960    4.8620  H     
29   H        -6.0501  -34.8125    4.8484  H     
30   H        -7.0117  -36.7151    8.4985  H     
31   H        -6.3088  -34.7488    9.7052  H     
32   H        -5.4920  -32.8110    8.5214  H     
33   H        -5.3560  -37.6127    4.6814  H     
34   H        -6.5514  -38.8953    4.9263  H     
35   H        -5.4731  -38.4451    6.2549  H     
36   H        -2.7671  -33.8469    6.4411  H     
37   H        -1.9793  -33.3877    4.9263  H     
38   H        -3.3663  -34.4706    4.8910  H     
@<TRIPOS>BOND
     1    1    2 2
     2    1    4 1
     3    1   22 1
     4    2    3 1
     5    2   13 1
     6    3    6 2
     7    4    5 2
     8    5    6 1
     9    5   10 1
    10    6    7 1
    11    7    8 2
    12    8    9 1
    13    8   12 1
    14    9   10 2
    15   10   11 1
    16   13   14 2
    17   13   18 1
    18   14   15 1
    19   15   16 2
    20   15   19 1
    21   16   17 1
    22   17   18 2
    23   19   20 1
    24   19   21 2
    25    3   23 1
    26    4   24 1
    27   11   25 1
    28   11   26 1
    29   12   27 1
    30   12   28 1
    31   14   29 1
    32   16   30 1
    33   17   31 1
    34   18   32 1
    35   20   33 1
    36   20   34 1
    37   20   35 1
    38   22   36 1
    39   22   37 1
    40   22   38 1
@<TRIPOS>PROPERTY_DATA
  Total_Score	| 6.7462
  Crash		| -0.7067
  Polar		| 3.2223
  FragIndex	| 1
  FragRMSD	| 0.724

