@<TRIPOS>MOLECULE
BindingDB_50351190
 35 37 0 0 0
SMALL
NO_CHARGES


@<TRIPOS>ATOM
1    C        -3.9088  -32.4170    5.2859  C     
2    C        -5.2125  -32.4910    5.8552  C     
3    C        -6.0667  -31.3740    5.7458  C     
4    C        -3.5147  -31.2465    4.5845  C     
5    C        -4.3811  -30.1365    4.4615  C     
6    C        -5.6578  -30.2116    5.0678  C     
7    N        -6.5002  -29.1396    5.0143  N     
8    C        -6.1601  -27.9913    4.3856  C     
9    N        -4.9545  -27.8980    3.7690  N     
10   C        -4.0625  -28.9235    3.7757  C     
11   N        -2.9058  -28.7350    3.1170  N     
12   N        -7.0202  -26.9668    4.3846  N     
13   C        -5.6990  -33.6302    6.5548  C     
14   C        -6.3037  -33.4894    7.8246  C     
15   C        -6.8154  -34.6081    8.5108  C     
16   C        -6.7308  -35.8889    7.9385  C     
17   C        -6.1526  -36.0384    6.6644  C     
18   C        -5.6328  -34.9191    5.9762  C     
19   N        -7.1957  -36.9584    8.6106  N     
20   C        -2.9301  -33.5268    5.4337  C     
21   H        -7.0033  -31.4004    6.1579  H     
22   H        -2.5831  -31.1958    4.1659  H     
23   H        -2.7266  -27.8893    2.6831  H     
24   H        -2.2461  -29.4404    3.0829  H     
25   H        -6.7941  -26.1338    3.9369  H     
26   H        -7.8654  -27.0532    4.8463  H     
27   H        -6.3683  -32.5682    8.2647  H     
28   H        -7.2396  -34.4809    9.4310  H     
29   H        -6.1005  -36.9640    6.2332  H     
30   H        -5.2129  -35.0433    5.0487  H     
31   H        -7.1265  -37.8438    8.2245  H     
32   H        -7.5789  -36.8492    9.4936  H     
33   H        -2.8041  -33.7830    6.4878  H     
34   H        -1.9412  -33.2747    5.0438  H     
35   H        -3.2950  -34.4081    4.8997  H     
@<TRIPOS>BOND
     1    1    2 2
     2    1    4 1
     3    1   20 1
     4    2    3 1
     5    2   13 1
     6    3    6 2
     7    4    5 2
     8    5    6 1
     9    5   10 1
    10    6    7 1
    11    7    8 2
    12    8    9 1
    13    8   12 1
    14    9   10 2
    15   10   11 1
    16   13   14 2
    17   13   18 1
    18   14   15 1
    19   15   16 2
    20   16   17 1
    21   16   19 1
    22   17   18 2
    23    3   21 1
    24    4   22 1
    25   11   23 1
    26   11   24 1
    27   12   25 1
    28   12   26 1
    29   14   27 1
    30   15   28 1
    31   17   29 1
    32   18   30 1
    33   19   31 1
    34   19   32 1
    35   20   33 1
    36   20   34 1
    37   20   35 1
@<TRIPOS>PROPERTY_DATA
  Total_Score	| 5.3192
  Crash		| -0.6708
  Polar		| 3.1482
  FragIndex	| 1
  FragRMSD	| 0.608

