@<TRIPOS>MOLECULE
BindingDB_50351173
 56 58 0 0 0
SMALL
NO_CHARGES


@<TRIPOS>ATOM
1    C        -3.6483  -32.6973    5.2866  C     
2    C        -4.8988  -32.8076    5.9574  C     
3    C        -5.7669  -31.6872    5.9663  C     
4    C        -3.3146  -31.4893    4.6204  C     
5    C        -4.2023  -30.3910    4.5951  C     
6    C        -5.4266  -30.4975    5.2985  C     
7    N        -6.2976  -29.4435    5.3045  N     
8    C        -6.0260  -28.2848    4.6537  C     
9    N        -4.8653  -28.1547    3.9681  N     
10   C        -3.9539  -29.1620    3.9053  C     
11   N        -2.8552  -28.9178    3.1762  N     
12   N        -6.9058  -27.2735    4.6876  N     
13   C        -5.3661  -34.0036    6.5860  C     
14   C        -6.2927  -34.8133    5.8806  C     
15   C        -6.9514  -35.8830    6.5258  C     
16   C        -6.7346  -36.0981    7.9025  C     
17   C        -5.7950  -35.3119    8.5964  C     
18   C        -5.0378  -34.3255    7.9275  C     
19   C        -7.8689  -36.6728    5.8425  C     
20   O        -4.0160  -33.6439    8.5604  O     
21   C        -3.3183  -34.2558    9.6703  C     
22   C        -2.8910  -35.7291    9.4910  C     
23   C        -2.7005  -33.8381    5.2310  C     
24   O        -8.9748  -36.1521    5.7731  O     
25   N        -7.6354  -37.9077    5.3381  N     
26   C        -8.7090  -38.6468    4.6728  C     
27   C        -6.3328  -38.5424    5.5691  C     
28   C        -9.7335  -37.8152    3.8506  C     
29   C        -6.1255  -40.0706    5.4265  C     
30   H        -6.6764  -31.7445    6.4369  H     
31   H        -2.4339  -31.4247    4.1024  H     
32   H        -2.7321  -28.0535    2.7488  H     
33   H        -2.1759  -29.5972    3.0774  H     
34   H        -6.7177  -26.4436    4.2221  H     
35   H        -7.7419  -27.3716    5.1854  H     
36   H        -6.5160  -34.5895    4.9066  H     
37   H        -7.2554  -36.8143    8.4112  H     
38   H        -5.6503  -35.4866    9.5928  H     
39   H        -2.4131  -33.6693    9.8477  H     
40   H        -3.9159  -34.1783   10.5801  H     
41   H        -3.7609  -36.3845    9.4776  H     
42   H        -2.2453  -36.0283   10.3156  H     
43   H        -2.3387  -35.8546    8.5620  H     
44   H        -2.4129  -34.1406    6.2349  H     
45   H        -1.7901  -33.6026    4.6787  H     
46   H        -3.1817  -34.6719    4.7268  H     
47   H        -8.3341  -39.3884    3.9704  H     
48   H        -9.2583  -39.2039    5.4482  H     
49   H        -5.6029  -38.0534    4.9146  H     
50   H        -6.0411  -38.3279    6.6044  H     
51   H       -10.4850  -37.3788    4.5026  H     
52   H       -10.2594  -38.4535    3.1392  H     
53   H        -9.2189  -37.0183    3.3038  H     
54   H        -6.8581  -40.6088    6.0281  H     
55   H        -5.1307  -40.3540    5.7770  H     
56   H        -6.2143  -40.3755    4.3837  H     
@<TRIPOS>BOND
     1    1    2 2
     2    1    4 1
     3    1   23 1
     4    2    3 1
     5    2   13 1
     6    3    6 2
     7    4    5 2
     8    5    6 1
     9    5   10 1
    10    6    7 1
    11    7    8 2
    12    8    9 1
    13    8   12 1
    14    9   10 2
    15   10   11 1
    16   13   14 2
    17   13   18 1
    18   14   15 1
    19   15   16 2
    20   15   19 1
    21   16   17 1
    22   17   18 2
    23   18   20 1
    24   19   24 2
    25   19   25 am
    26   20   21 1
    27   21   22 1
    28   25   26 1
    29   25   27 1
    30   26   28 1
    31   27   29 1
    32    3   30 1
    33    4   31 1
    34   11   32 1
    35   11   33 1
    36   12   34 1
    37   12   35 1
    38   14   36 1
    39   16   37 1
    40   17   38 1
    41   21   39 1
    42   21   40 1
    43   22   41 1
    44   22   42 1
    45   22   43 1
    46   23   44 1
    47   23   45 1
    48   23   46 1
    49   26   47 1
    50   26   48 1
    51   27   49 1
    52   27   50 1
    53   28   51 1
    54   28   52 1
    55   28   53 1
    56   29   54 1
    57   29   55 1
    58   29   56 1
@<TRIPOS>PROPERTY_DATA
  Total_Score	| 7.6304
  Crash		| -2.4088
  Polar		| 3.3044
  FragIndex	| 1
  FragRMSD	| 0.946

