@<TRIPOS>MOLECULE
BindingDB_50351193
 33 35 0 0 0
SMALL
NO_CHARGES


@<TRIPOS>ATOM
1    C        -3.9046  -32.4455    5.2917  C     
2    C        -5.2083  -32.5061    5.8714  C     
3    C        -6.0598  -31.3811    5.7642  C     
4    C        -3.5139  -31.2763    4.5901  C     
5    C        -4.3729  -30.1659    4.4671  C     
6    C        -5.6510  -30.2245    5.0796  C     
7    N        -6.4840  -29.1502    5.0070  N     
8    C        -6.1416  -28.0125    4.3613  C     
9    N        -4.9307  -27.9303    3.7548  N     
10   C        -4.0406  -28.9569    3.7792  C     
11   N        -2.8737  -28.7736    3.1399  N     
12   N        -7.0023  -26.9906    4.3305  N     
13   C        -5.7030  -33.6471    6.5739  C     
14   C        -6.3096  -33.5025    7.8451  C     
15   C        -6.8077  -34.6182    8.5400  C     
16   C        -6.7017  -35.9028    7.9818  C     
17   C        -6.1246  -36.0601    6.7104  C     
18   C        -5.6424  -34.9416    6.0086  C     
19   C        -2.9193  -33.5520    5.4287  C     
20   H        -6.9977  -31.3987    6.1873  H     
21   H        -2.5858  -31.2324    4.1622  H     
22   H        -2.6817  -27.9277    2.7059  H     
23   H        -2.2114  -29.4791    3.1191  H     
24   H        -6.7683  -26.1684    3.8696  H     
25   H        -7.8614  -27.0655    4.7809  H     
26   H        -6.3866  -32.5783    8.2823  H     
27   H        -7.2428  -34.4996    9.4595  H     
28   H        -7.0465  -36.7143    8.4959  H     
29   H        -6.0540  -36.9929    6.2976  H     
30   H        -5.2496  -35.0766    5.0734  H     
31   H        -2.7765  -33.7974    6.4841  H     
32   H        -1.9444  -33.2988    5.0051  H     
33   H        -3.2764  -34.4347    4.9008  H     
@<TRIPOS>BOND
     1    1    2 2
     2    1    4 1
     3    1   19 1
     4    2    3 1
     5    2   13 1
     6    3    6 2
     7    4    5 2
     8    5    6 1
     9    5   10 1
    10    6    7 1
    11    7    8 2
    12    8    9 1
    13    8   12 1
    14    9   10 2
    15   10   11 1
    16   13   14 2
    17   13   18 1
    18   14   15 1
    19   15   16 2
    20   16   17 1
    21   17   18 2
    22    3   20 1
    23    4   21 1
    24   11   22 1
    25   11   23 1
    26   12   24 1
    27   12   25 1
    28   14   26 1
    29   15   27 1
    30   16   28 1
    31   17   29 1
    32   18   30 1
    33   19   31 1
    34   19   32 1
    35   19   33 1
@<TRIPOS>PROPERTY_DATA
  Total_Score	| 5.4076
  Crash		| -0.6776
  Polar		| 3.0898
  FragIndex	| 1
  FragRMSD	| 0.809

