@<TRIPOS>MOLECULE
BindingDB_50351191
 32 34 0 0 0
SMALL
NO_CHARGES


@<TRIPOS>ATOM
1    C        -4.0627  -32.3207    5.2442  C     
2    C        -5.3786  -32.3748    5.7861  C     
3    C        -6.2083  -31.2363    5.6189  C     
4    C        -3.6089  -31.1752    4.5583  C     
5    C        -4.4458  -30.0451    4.3919  C     
6    C        -5.7490  -30.0908    4.9496  C     
7    N        -6.5590  -29.0029    4.8473  N     
8    C        -6.1735  -27.8648    4.2218  C     
9    N        -4.9459  -27.8050    3.6533  N     
10   C        -4.0760  -28.8504    3.7068  C     
11   N        -2.8958  -28.7005    3.0804  N     
12   N        -7.0140  -26.8248    4.1642  N     
13   C        -5.8575  -33.5430    6.4648  C     
14   C        -6.6471  -33.4384    7.6419  C     
15   C        -7.1538  -34.5775    8.2981  C     
16   C        -6.8602  -35.8658    7.8067  C     
17   C        -6.0803  -35.9962    6.6417  C     
18   C        -5.5872  -34.8513    5.9817  C     
19   N        -7.3191  -36.9582    8.4481  N     
20   H        -3.4199  -33.1111    5.3609  H     
21   H        -7.1711  -31.2513    5.9758  H     
22   H        -2.6540  -31.1816    4.1762  H     
23   H        -2.6769  -27.8671    2.6378  H     
24   H        -2.2509  -29.4222    3.0728  H     
25   H        -6.7482  -26.0077    3.7117  H     
26   H        -7.8856  -26.8858    4.5974  H     
27   H        -6.8466  -32.5223    8.0526  H     
28   H        -7.7305  -34.4660    9.1395  H     
29   H        -5.8666  -36.9271    6.2647  H     
30   H        -5.0556  -34.9823    5.1179  H     
31   H        -7.0965  -37.8459    8.1211  H     
32   H        -7.8596  -36.8626    9.2495  H     
@<TRIPOS>BOND
     1    1    2 2
     2    1    4 1
     3    2    3 1
     4    2   13 1
     5    3    6 2
     6    4    5 2
     7    5    6 1
     8    5   10 1
     9    6    7 1
    10    7    8 2
    11    8    9 1
    12    8   12 1
    13    9   10 2
    14   10   11 1
    15   13   14 2
    16   13   18 1
    17   14   15 1
    18   15   16 2
    19   16   17 1
    20   16   19 1
    21   17   18 2
    22    1   20 1
    23    3   21 1
    24    4   22 1
    25   11   23 1
    26   11   24 1
    27   12   25 1
    28   12   26 1
    29   14   27 1
    30   15   28 1
    31   17   29 1
    32   18   30 1
    33   19   31 1
    34   19   32 1
@<TRIPOS>PROPERTY_DATA
  Total_Score	| 4.3345
  Crash		| -0.5446
  Polar		| 2.8301
  FragIndex	| 1
  FragRMSD	| 0.697

