@<TRIPOS>MOLECULE
BindingDB_50351179
 42 44 0 0 0
SMALL
NO_CHARGES


@<TRIPOS>ATOM
1    C        -3.6585  -32.4726    5.2723  C     
2    C        -4.9267  -32.6065    5.9105  C     
3    C        -5.8335  -31.5194    5.8419  C     
4    C        -3.3602  -31.3005    4.5350  C     
5    C        -4.2769  -30.2334    4.4548  C     
6    C        -5.5107  -30.3444    5.1404  C     
7    N        -6.3838  -29.2969    5.1261  N     
8    C        -6.1056  -28.1371    4.4834  C     
9    N        -4.9413  -28.0067    3.8067  N     
10   C        -4.0285  -29.0090    3.7596  C     
11   N        -2.9192  -28.7826    3.0383  N     
12   N        -6.9758  -27.1203    4.5242  N     
13   C        -5.3953  -33.8230    6.5033  C     
14   C        -6.4279  -34.5190    5.8249  C     
15   C        -7.0470  -35.6678    6.3711  C     
16   C        -6.6187  -36.1117    7.6369  C     
17   C        -5.5884  -35.4464    8.3176  C     
18   C        -4.9254  -34.3378    7.7434  C     
19   C        -8.0433  -36.3305    5.6586  C     
20   O        -8.0718  -37.5516    5.5219  O     
21   O        -3.9020  -33.7129    8.4116  O     
22   C        -2.7863  -34.5180    8.8655  C     
23   C        -1.9193  -33.6549    9.8133  C     
24   C        -2.5821  -33.4675    5.4456  C     
25   H        -6.7520  -31.5824    6.2990  H     
26   H        -2.4492  -31.2093    4.0752  H     
27   H        -2.7969  -27.9306    2.5826  H     
28   H        -2.2538  -29.4748    2.9389  H     
29   H        -6.7637  -26.2834    4.0851  H     
30   H        -7.7912  -27.2071    5.0393  H     
31   H        -6.7418  -34.1760    4.9101  H     
32   H        -7.0519  -36.9248    8.0809  H     
33   H        -5.3228  -35.7900    9.2405  H     
34   H        -8.7562  -35.8098    5.2023  H     
35   H        -3.1399  -35.3671    9.4423  H     
36   H        -2.1544  -34.9057    8.0489  H     
37   H        -1.5522  -32.7659    9.2984  H     
38   H        -1.0583  -34.2275   10.1733  H     
39   H        -2.5140  -33.3484   10.6736  H     
40   H        -2.1575  -33.2839    6.4367  H     
41   H        -1.7912  -33.3645    4.7005  H     
42   H        -2.9661  -34.4867    5.3779  H     
@<TRIPOS>BOND
     1    1    2 2
     2    1    4 1
     3    1   24 1
     4    2    3 1
     5    2   13 1
     6    3    6 2
     7    4    5 2
     8    5    6 1
     9    5   10 1
    10    6    7 1
    11    7    8 2
    12    8    9 1
    13    8   12 1
    14    9   10 2
    15   10   11 1
    16   13   14 2
    17   13   18 1
    18   14   15 1
    19   15   16 2
    20   15   19 1
    21   16   17 1
    22   17   18 2
    23   18   21 1
    24   19   20 2
    25   21   22 1
    26   22   23 1
    27    3   25 1
    28    4   26 1
    29   11   27 1
    30   11   28 1
    31   12   29 1
    32   12   30 1
    33   14   31 1
    34   16   32 1
    35   17   33 1
    36   19   34 1
    37   22   35 1
    38   22   36 1
    39   23   37 1
    40   23   38 1
    41   23   39 1
    42   24   40 1
    43   24   41 1
    44   24   42 1
@<TRIPOS>PROPERTY_DATA
  Total_Score	| 6.9834
  Crash		| -0.9676
  Polar		| 3.2873
  FragIndex	| 1
  FragRMSD	| 0.929

