@<TRIPOS>MOLECULE
BindingDB_50351187
 41 43 0 0 0
SMALL
NO_CHARGES


@<TRIPOS>ATOM
1    C        -3.7694  -32.4100    5.2325  C     
2    C        -5.0459  -32.4789    5.8654  C     
3    C        -5.9132  -31.3655    5.8067  C     
4    C        -3.4187  -31.2363    4.5241  C     
5    C        -4.3009  -30.1354    4.4408  C     
6    C        -5.5476  -30.2102    5.1081  C     
7    N        -6.4033  -29.1548    5.0629  N     
8    C        -6.1176  -28.0213    4.3856  C     
9    N        -4.9411  -27.9198    3.7199  N     
10   C        -4.0340  -28.9302    3.7191  C     
11   N        -2.8991  -28.7280    3.0274  N     
12   N        -6.9994  -27.0119    4.3851  N     
13   C        -5.5098  -33.6291    6.5582  C     
14   C        -5.5833  -33.6473    7.9682  C     
15   C        -6.1111  -34.7614    8.6451  C     
16   C        -6.5876  -35.8755    7.9294  C     
17   C        -6.5005  -35.8777    6.5181  C     
18   C        -5.9918  -34.7518    5.8447  C     
19   O        -7.0096  -36.9310    5.8101  O     
20   C        -6.0335  -37.9319    5.4373  C     
21   O        -7.0512  -36.9469    8.6441  O     
22   C        -8.4651  -36.9230    8.9136  C     
23   C        -2.7959  -33.5328    5.3241  C     
24   H        -6.8319  -31.4024    6.2586  H     
25   H        -2.5088  -31.1848    4.0566  H     
26   H        -2.7421  -27.8876    2.5682  H     
27   H        -2.2183  -29.4173    2.9957  H     
28   H        -6.7999  -26.1917    3.9027  H     
29   H        -7.8299  -27.1001    4.8803  H     
30   H        -5.2617  -32.8386    8.5090  H     
31   H        -6.1566  -34.7462    9.6691  H     
32   H        -5.9993  -34.7495    4.8188  H     
33   H        -5.3364  -37.5198    4.7038  H     
34   H        -6.5703  -38.7590    4.9706  H     
35   H        -5.4893  -38.3196    6.3007  H     
36   H        -8.7710  -36.0261    9.4630  H     
37   H        -8.7036  -37.7958    9.5232  H     
38   H        -9.0571  -37.0079    7.9905  H     
39   H        -2.5675  -33.7416    6.3639  H     
40   H        -1.8599  -33.3209    4.8021  H     
41   H        -3.2261  -34.4332    4.8675  H     
@<TRIPOS>BOND
     1    1    2 2
     2    1    4 1
     3    1   23 1
     4    2    3 1
     5    2   13 1
     6    3    6 2
     7    4    5 2
     8    5    6 1
     9    5   10 1
    10    6    7 1
    11    7    8 2
    12    8    9 1
    13    8   12 1
    14    9   10 2
    15   10   11 1
    16   13   14 2
    17   13   18 1
    18   14   15 1
    19   15   16 2
    20   16   17 1
    21   16   21 1
    22   17   18 2
    23   17   19 1
    24   19   20 1
    25   21   22 1
    26    3   24 1
    27    4   25 1
    28   11   26 1
    29   11   27 1
    30   12   28 1
    31   12   29 1
    32   14   30 1
    33   15   31 1
    34   18   32 1
    35   20   33 1
    36   20   34 1
    37   20   35 1
    38   22   36 1
    39   22   37 1
    40   22   38 1
    41   23   39 1
    42   23   40 1
    43   23   41 1
@<TRIPOS>PROPERTY_DATA
  Total_Score	| 6.8457
  Crash		| -0.7788
  Polar		| 3.1605
  FragIndex	| 1
  FragRMSD	| 0.799

