@<TRIPOS>MOLECULE
BindingDB_50351186
 41 43 0 0 0
SMALL
NO_CHARGES


@<TRIPOS>ATOM
1    C        -3.8176  -32.4156    5.3753  C     
2    C        -5.0582  -32.4453    6.0820  C     
3    C        -5.8960  -31.3114    6.0123  C     
4    C        -3.4580  -31.2756    4.6189  C     
5    C        -4.3128  -30.1598    4.5285  C     
6    C        -5.5395  -30.1925    5.2370  C     
7    N        -6.3856  -29.1289    5.1520  N     
8    C        -6.1050  -28.0364    4.4045  C     
9    N        -4.9399  -27.9821    3.7138  N     
10   C        -4.0326  -28.9917    3.7480  C     
11   N        -2.9123  -28.8346    3.0183  N     
12   N        -6.9989  -27.0372    4.3552  N     
13   C        -5.4698  -33.5523    6.8925  C     
14   C        -4.6568  -33.9440    7.9836  C     
15   C        -4.9842  -35.0614    8.7829  C     
16   C        -6.1951  -35.7396    8.5476  C     
17   C        -7.0506  -35.3265    7.5076  C     
18   C        -6.6876  -34.2493    6.6682  C     
19   O        -7.5281  -33.8617    5.6623  O     
20   C        -7.8051  -34.8715    4.6741  C     
21   O        -4.1787  -35.4440    9.8275  O     
22   C        -3.2338  -36.4754    9.4882  C     
23   C        -2.8830  -33.5652    5.3960  C     
24   H        -6.7812  -31.3016    6.5242  H     
25   H        -2.5607  -31.2483    4.1296  H     
26   H        -2.7578  -28.0168    2.5236  H     
27   H        -2.2393  -29.5236    2.9971  H     
28   H        -6.8140  -26.2420    3.8272  H     
29   H        -7.8338  -27.1215    4.8465  H     
30   H        -3.8162  -33.4098    8.2127  H     
31   H        -6.4664  -36.5273    9.1474  H     
32   H        -7.9458  -35.8037    7.3643  H     
33   H        -6.8883  -35.2790    4.2415  H     
34   H        -8.3730  -34.4027    3.8702  H     
35   H        -8.4040  -35.6852    5.0972  H     
36   H        -3.7347  -37.3909    9.1660  H     
37   H        -2.6452  -36.7136   10.3746  H     
38   H        -2.5446  -36.1449    8.7065  H     
39   H        -2.5219  -33.7163    6.4085  H     
40   H        -2.0170  -33.4235    4.7517  H     
41   H        -3.3899  -34.4657    5.0599  H     
@<TRIPOS>BOND
     1    1    2 2
     2    1    4 1
     3    1   23 1
     4    2    3 1
     5    2   13 1
     6    3    6 2
     7    4    5 2
     8    5    6 1
     9    5   10 1
    10    6    7 1
    11    7    8 2
    12    8    9 1
    13    8   12 1
    14    9   10 2
    15   10   11 1
    16   13   14 2
    17   13   18 1
    18   14   15 1
    19   15   16 2
    20   15   21 1
    21   16   17 1
    22   17   18 2
    23   18   19 1
    24   19   20 1
    25   21   22 1
    26    3   24 1
    27    4   25 1
    28   11   26 1
    29   11   27 1
    30   12   28 1
    31   12   29 1
    32   14   30 1
    33   16   31 1
    34   17   32 1
    35   20   33 1
    36   20   34 1
    37   20   35 1
    38   22   36 1
    39   22   37 1
    40   22   38 1
    41   23   39 1
    42   23   40 1
    43   23   41 1
@<TRIPOS>PROPERTY_DATA
  Total_Score	| 6.6436
  Crash		| -0.8643
  Polar		| 3.1340
  FragIndex	| 1
  FragRMSD	| 1.018

