@<TRIPOS>MOLECULE
BindingDB_50351192
 30 32 0 0 0
SMALL
NO_CHARGES


@<TRIPOS>ATOM
1    C        -3.9430  -32.3954    5.2545  C     
2    C        -5.2256  -32.4494    5.8600  C     
3    C        -6.0478  -31.3034    5.7484  C     
4    C        -3.5042  -31.2540    4.5540  C     
5    C        -4.3412  -30.1199    4.4339  C     
6    C        -5.6132  -30.1588    5.0546  C     
7    N        -6.4345  -29.0742    4.9955  N     
8    C        -6.0821  -27.9480    4.3442  C     
9    N        -4.8830  -27.8789    3.7124  N     
10   C        -4.0080  -28.9223    3.7262  C     
11   N        -2.8653  -28.7769    3.0395  N     
12   N        -6.9471  -26.9258    4.3525  N     
13   C        -5.7084  -33.6102    6.5442  C     
14   C        -6.3596  -33.5023    7.8019  C     
15   C        -6.8479  -34.6462    8.4644  C     
16   C        -6.6992  -35.9153    7.8816  C     
17   C        -6.0679  -36.0375    6.6330  C     
18   C        -5.5811  -34.8944    5.9689  C     
19   H        -3.3141  -33.1997    5.3268  H     
20   H        -6.9897  -31.2962    6.1591  H     
21   H        -2.5699  -31.2611    4.1327  H     
22   H        -2.6618  -27.9414    2.5856  H     
23   H        -2.2188  -29.4985    3.0095  H     
24   H        -6.7327  -26.1009    3.8951  H     
25   H        -7.7878  -27.0224    4.8326  H     
26   H        -6.4684  -32.5939    8.2593  H     
27   H        -7.2977  -34.5542    9.3783  H     
28   H        -7.0416  -36.7493    8.3721  H     
29   H        -5.9606  -36.9584    6.2065  H     
30   H        -5.1454  -35.0129    5.0515  H     
@<TRIPOS>BOND
     1    1    2 2
     2    1    4 1
     3    2    3 1
     4    2   13 1
     5    3    6 2
     6    4    5 2
     7    5    6 1
     8    5   10 1
     9    6    7 1
    10    7    8 2
    11    8    9 1
    12    8   12 1
    13    9   10 2
    14   10   11 1
    15   13   14 2
    16   13   18 1
    17   14   15 1
    18   15   16 2
    19   16   17 1
    20   17   18 2
    21    1   19 1
    22    3   20 1
    23    4   21 1
    24   11   22 1
    25   11   23 1
    26   12   24 1
    27   12   25 1
    28   14   26 1
    29   15   27 1
    30   16   28 1
    31   17   29 1
    32   18   30 1
@<TRIPOS>PROPERTY_DATA
  Total_Score	| 4.5806
  Crash		| -0.5008
  Polar		| 3.0517
  FragIndex	| 1
  FragRMSD	| 0.838

