@<TRIPOS>MOLECULE
BindingDB_50351184
 39 41 0 0 0
SMALL
NO_CHARGES


@<TRIPOS>ATOM
1    C        -3.7737  -32.4791    5.3470  C     
2    C        -5.0148  -32.4870    6.0390  C     
3    C        -5.7618  -31.2951    6.1148  C     
4    C        -3.3891  -31.3119    4.6325  C     
5    C        -4.2243  -30.1658    4.5968  C     
6    C        -5.4120  -30.1688    5.3602  C     
7    N        -6.2656  -29.1253    5.3127  N     
8    C        -6.0468  -28.0588    4.5116  C     
9    N        -4.9171  -28.0004    3.7634  N     
10   C        -4.0032  -29.0060    3.7886  C     
11   N        -2.9135  -28.8417    3.0175  N     
12   N        -6.9738  -27.0948    4.4495  N     
13   C        -5.5759  -33.6213    6.7026  C     
14   C        -5.0062  -34.0405    7.9247  C     
15   C        -5.5806  -35.0852    8.6648  C     
16   C        -6.7396  -35.7160    8.1996  C     
17   C        -7.3193  -35.3017    6.9894  C     
18   C        -6.7407  -34.2754    6.2027  C     
19   C        -7.3042  -34.0113    4.8309  C     
20   C        -7.7369  -32.5646    4.5224  C     
21   C        -2.8714  -33.6567    5.3705  C     
22   H        -6.6356  -31.2679    6.6535  H     
23   H        -2.5250  -31.3147    4.0812  H     
24   H        -2.7881  -28.0207    2.5042  H     
25   H        -2.2328  -29.5265    2.9837  H     
26   H        -6.8459  -26.3371    3.8503  H     
27   H        -7.7968  -27.1772    4.9637  H     
28   H        -4.1667  -33.5919    8.2825  H     
29   H        -5.1654  -35.3782    9.5574  H     
30   H        -7.1672  -36.4636    8.7450  H     
31   H        -8.1617  -35.7808    6.6652  H     
32   H        -6.5762  -34.3375    4.0753  H     
33   H        -8.1973  -34.6427    4.6600  H     
34   H        -8.3482  -32.1923    5.3222  H     
35   H        -8.3120  -32.5519    3.6004  H     
36   H        -6.8986  -31.8999    4.4027  H     
37   H        -2.5973  -33.9177    6.3980  H     
38   H        -1.9385  -33.4978    4.8168  H     
39   H        -3.3908  -34.5037    4.9166  H     
@<TRIPOS>BOND
     1    1    2 2
     2    1    4 1
     3    1   21 1
     4    2    3 1
     5    2   13 1
     6    3    6 2
     7    4    5 2
     8    5    6 1
     9    5   10 1
    10    6    7 1
    11    7    8 2
    12    8    9 1
    13    8   12 1
    14    9   10 2
    15   10   11 1
    16   13   14 2
    17   13   18 1
    18   14   15 1
    19   15   16 2
    20   16   17 1
    21   17   18 2
    22   18   19 1
    23   19   20 1
    24    3   22 1
    25    4   23 1
    26   11   24 1
    27   11   25 1
    28   12   26 1
    29   12   27 1
    30   14   28 1
    31   15   29 1
    32   16   30 1
    33   17   31 1
    34   19   32 1
    35   19   33 1
    36   20   34 1
    37   20   35 1
    38   20   36 1
    39   21   37 1
    40   21   38 1
    41   21   39 1
@<TRIPOS>PROPERTY_DATA
  Total_Score	| 6.2201
  Crash		| -1.4302
  Polar		| 3.2157
  FragIndex	| 1
  FragRMSD	| 0.916

