@<TRIPOS>MOLECULE
BindingDB_50351181
 35 37 0 0 0
SMALL
NO_CHARGES


@<TRIPOS>ATOM
1    C        -3.8964  -32.4378    5.2409  C     
2    C        -5.1416  -32.4664    5.9088  C     
3    C        -5.9768  -31.3272    5.8490  C     
4    C        -3.4775  -31.2839    4.5492  C     
5    C        -4.3158  -30.1472    4.4790  C     
6    C        -5.5778  -30.1894    5.1375  C     
7    N        -6.4131  -29.1245    5.0756  N     
8    C        -6.1016  -27.9958    4.3929  C     
9    N        -4.9055  -27.9200    3.7545  N     
10   C        -4.0086  -28.9422    3.7754  C     
11   N        -2.8508  -28.7771    3.1159  N     
12   N        -6.9995  -27.0078    4.3782  N     
13   C        -5.6013  -33.6131    6.5886  C     
14   C        -5.9510  -34.7737    5.8736  C     
15   C        -6.5107  -35.8875    6.5495  C     
16   C        -6.6673  -35.8445    7.9559  C     
17   C        -6.2874  -34.6984    8.6718  C     
18   C        -5.7929  -33.5752    7.9930  C     
19   C        -6.9197  -36.9978    5.8546  C     
20   C        -5.9789  -38.0266    5.4754  C     
21   O        -8.1288  -37.2029    5.7345  O     
22   H        -3.2761  -33.2527    5.2598  H     
23   H        -6.8936  -31.3373    6.3040  H     
24   H        -2.5752  -31.2952    4.0611  H     
25   H        -2.6519  -27.9434    2.6695  H     
26   H        -2.1926  -29.4848    3.1035  H     
27   H        -6.8156  -26.1854    3.8979  H     
28   H        -7.8387  -27.1199    4.8631  H     
29   H        -5.8460  -34.7941    4.8528  H     
30   H        -7.0392  -36.6473    8.4638  H     
31   H        -6.3918  -34.6842    9.6873  H     
32   H        -5.5665  -32.7349    8.5276  H     
33   H        -5.2455  -37.6270    4.7683  H     
34   H        -6.4951  -38.8697    5.0058  H     
35   H        -5.4599  -38.3893    6.3693  H     
@<TRIPOS>BOND
     1    1    2 2
     2    1    4 1
     3    2    3 1
     4    2   13 1
     5    3    6 2
     6    4    5 2
     7    5    6 1
     8    5   10 1
     9    6    7 1
    10    7    8 2
    11    8    9 1
    12    8   12 1
    13    9   10 2
    14   10   11 1
    15   13   14 2
    16   13   18 1
    17   14   15 1
    18   15   16 2
    19   15   19 1
    20   16   17 1
    21   17   18 2
    22   19   20 1
    23   19   21 2
    24    1   22 1
    25    3   23 1
    26    4   24 1
    27   11   25 1
    28   11   26 1
    29   12   27 1
    30   12   28 1
    31   14   29 1
    32   16   30 1
    33   17   31 1
    34   18   32 1
    35   20   33 1
    36   20   34 1
    37   20   35 1
@<TRIPOS>PROPERTY_DATA
  Total_Score	| 6.0165
  Crash		| -0.6121
  Polar		| 3.2357
  FragIndex	| 1
  FragRMSD	| 0.740

