@<TRIPOS>MOLECULE
BindingDB_50351185
 36 38 0 0 0
SMALL
NO_CHARGES


@<TRIPOS>ATOM
1    C        -3.7433  -32.4354    5.3184  C     
2    C        -5.0205  -32.5005    5.9530  C     
3    C        -5.8837  -31.3805    5.8871  C     
4    C        -3.3768  -31.2565    4.6189  C     
5    C        -4.2554  -30.1547    4.5214  C     
6    C        -5.5095  -30.2273    5.1799  C     
7    N        -6.3591  -29.1652    5.1356  N     
8    C        -6.0609  -28.0317    4.4700  C     
9    N        -4.8836  -27.9351    3.8048  N     
10   C        -3.9818  -28.9539    3.7968  C     
11   N        -2.8687  -28.7758    3.0622  N     
12   N        -6.9450  -27.0227    4.4711  N     
13   C        -5.4811  -33.6425    6.6679  C     
14   C        -4.7140  -34.0917    7.7650  C     
15   C        -5.1208  -35.2011    8.5246  C     
16   C        -6.3120  -35.8702    8.2152  C     
17   C        -7.0829  -35.4390    7.1207  C     
18   C        -6.6759  -34.3415    6.3241  C     
19   C        -2.8186  -33.5967    5.3393  C     
20   C        -7.4876  -33.9687    5.1363  C     
21   H        -6.7986  -31.4039    6.3512  H     
22   H        -2.4610  -31.2074    4.1641  H     
23   H        -2.7217  -27.9390    2.5890  H     
24   H        -2.2034  -29.4728    3.0046  H     
25   H        -6.7458  -26.2003    3.9990  H     
26   H        -7.7852  -27.1259    4.9461  H     
27   H        -3.8513  -33.6120    8.0296  H     
28   H        -4.5527  -35.5131    9.3205  H     
29   H        -6.6153  -36.6686    8.7765  H     
30   H        -7.9462  -35.9470    6.9095  H     
31   H        -2.5176  -33.8249    6.3604  H     
32   H        -1.9102  -33.4224    4.7591  H     
33   H        -3.3250  -34.4633    4.9155  H     
34   H        -7.9421  -32.9910    5.2917  H     
35   H        -8.2852  -34.6884    4.9328  H     
36   H        -6.8400  -33.9322    4.2587  H     
@<TRIPOS>BOND
     1    1    2 2
     2    1    4 1
     3    1   19 1
     4    2    3 1
     5    2   13 1
     6    3    6 2
     7    4    5 2
     8    5    6 1
     9    5   10 1
    10    6    7 1
    11    7    8 2
    12    8    9 1
    13    8   12 1
    14    9   10 2
    15   10   11 1
    16   13   14 2
    17   13   18 1
    18   14   15 1
    19   15   16 2
    20   16   17 1
    21   17   18 2
    22   18   20 1
    23    3   21 1
    24    4   22 1
    25   11   23 1
    26   11   24 1
    27   12   25 1
    28   12   26 1
    29   14   27 1
    30   15   28 1
    31   16   29 1
    32   17   30 1
    33   19   31 1
    34   19   32 1
    35   19   33 1
    36   20   34 1
    37   20   35 1
    38   20   36 1
@<TRIPOS>PROPERTY_DATA
  Total_Score	| 5.9687
  Crash		| -0.7703
  Polar		| 3.2038
  FragIndex	| 1
  FragRMSD	| 0.966

