@<TRIPOS>MOLECULE
BindingDB_50351182
 42 44 0 0 0
SMALL
NO_CHARGES


@<TRIPOS>ATOM
1    C        -3.5075  -32.4356    5.4277  C     
2    C        -4.7272  -32.4827    6.1578  C     
3    C        -5.4548  -31.2971    6.3370  C     
4    C        -3.2033  -31.2590    4.6885  C     
5    C        -4.0751  -30.1438    4.6871  C     
6    C        -5.1949  -30.1600    5.5590  C     
7    N        -6.1110  -29.1505    5.5176  N     
8    C        -6.0072  -28.1257    4.6375  C     
9    N        -4.9410  -28.0664    3.8033  N     
10   C        -3.9723  -29.0185    3.8059  C     
11   N        -2.9905  -28.8812    2.8992  N     
12   N        -6.9901  -27.2177    4.5561  N     
13   C        -5.3986  -33.6431    6.6465  C     
14   C        -4.9861  -34.1749    7.8897  C     
15   C        -5.7666  -35.1343    8.5532  C     
16   C        -6.9861  -35.5479    7.9981  C     
17   C        -7.4201  -35.0080    6.7762  C     
18   C        -6.6387  -34.0706    6.0482  C     
19   C        -2.6005  -33.6076    5.3735  C     
20   C        -7.1176  -33.5842    4.6760  C     
21   C        -7.9299  -34.6983    3.9423  C     
22   C        -7.8941  -32.2110    4.6316  C     
23   H        -6.3208  -31.3860    6.8739  H     
24   H        -2.3658  -31.2379    4.0983  H     
25   H        -2.9684  -28.1085    2.3129  H     
26   H        -2.3142  -29.5632    2.8096  H     
27   H        -6.9281  -26.5005    3.9056  H     
28   H        -7.7975  -27.3168    5.0923  H     
29   H        -4.1518  -33.8149    8.3635  H     
30   H        -5.4663  -35.5024    9.4601  H     
31   H        -7.5680  -36.2303    8.4914  H     
32   H        -8.3154  -35.3364    6.4096  H     
33   H        -1.7377  -33.4308    4.7306  H     
34   H        -3.1368  -34.4767    4.9884  H     
35   H        -2.2233  -33.8385    6.3690  H     
36   H        -6.2472  -33.4397    4.0327  H     
37   H        -7.4138  -35.6591    4.0138  H     
38   H        -8.0485  -34.4621    2.8861  H     
39   H        -8.9298  -34.8071    4.3681  H     
40   H        -8.6741  -32.2433    5.3798  H     
41   H        -8.3883  -32.1114    3.6662  H     
42   H        -7.3215  -31.2599    4.7775  H     
@<TRIPOS>BOND
     1    1    2 2
     2    1    4 1
     3    1   19 1
     4    2    3 1
     5    2   13 1
     6    3    6 2
     7    4    5 2
     8    5    6 1
     9    5   10 1
    10    6    7 1
    11    7    8 2
    12    8    9 1
    13    8   12 1
    14    9   10 2
    15   10   11 1
    16   13   14 2
    17   13   18 1
    18   14   15 1
    19   15   16 2
    20   16   17 1
    21   17   18 2
    22   18   20 1
    23   20   21 1
    24   20   22 1
    25    3   23 1
    26    4   24 1
    27   11   25 1
    28   11   26 1
    29   12   27 1
    30   12   28 1
    31   14   29 1
    32   15   30 1
    33   16   31 1
    34   17   32 1
    35   19   33 1
    36   19   34 1
    37   19   35 1
    38   20   36 1
    39   21   37 1
    40   21   38 1
    41   21   39 1
    42   22   40 1
    43   22   41 1
    44   22   42 1
@<TRIPOS>PROPERTY_DATA
  Total_Score	| 5.6323
  Crash		| -2.7206
  Polar		| 3.0857
  FragIndex	| 1
  FragRMSD	| 0.975

