@<TRIPOS>MOLECULE
BindingDB_50359708
 48 49 0 0 0
SMALL
NO_CHARGES


@<TRIPOS>ATOM
1    C        -7.2407   33.1742   -1.2754  C     
2    C        -7.1407   33.7827   -2.5515  C     
3    C        -6.2011   34.8013   -2.7964  C     
4    C        -5.3405   35.2496   -1.7693  C     
5    C        -5.3954   34.6040   -0.5170  C     
6    C        -6.3231   33.5649   -0.2503  C     
7    N        -4.4287   36.2637   -1.9087  N     
8    C        -4.5326   37.3838   -2.6181  C     
9    C        -3.5588   38.3275   -2.5306  C     
10   O        -5.5485   37.6650   -3.2448  O     
11   C        -6.2906   32.9600    1.0409  C     
12   O        -6.5888   31.6445    1.1929  O     
13   O        -5.9224   33.6882    2.1326  O     
14   C        -5.8476   33.2088    3.4802  C     
15   C        -8.3468   32.3079   -1.0296  C     
16   C        -9.2706   32.6449   -0.0089  C     
17   C       -10.3090   31.7672    0.3409  C     
18   C       -10.4519   30.5450   -0.3347  C     
19   C        -9.5905   30.2245   -1.4054  C     
20   C        -8.5339   31.0958   -1.7391  C     
21   C        -3.3871   39.0921   -1.4283  C     
22   C        -2.3990   40.1736   -1.2895  C     
23   C        -0.9499   39.6580   -1.1258  C     
24   O        -4.1886   38.8770   -0.3751  O     
25   C        -2.8248   38.4511   -3.5764  C     
26   N        -2.1623   38.5566   -4.5090  N     
27   O        -9.6774   28.9956   -2.0069  O     
28   C       -10.8225   28.7448   -2.8709  C     
29   F       -12.0415   29.1835   -2.3843  F     
30   F       -10.6095   29.3032   -4.1250  F     
31   H        -7.7795   33.5226   -3.3067  H     
32   H        -6.1558   35.2244   -3.7281  H     
33   H        -4.7468   34.9104    0.2171  H     
34   H        -3.6473   36.2048   -1.3310  H     
35   H        -6.8342   32.8790    3.8214  H     
36   H        -5.5068   34.0175    4.1286  H     
37   H        -5.1398   32.3785    3.5510  H     
38   H        -9.1832   33.5267    0.5025  H     
39   H       -10.9465   31.9994    1.1053  H     
40   H       -11.1986   29.9025   -0.0533  H     
41   H        -7.8807   30.8277   -2.4781  H     
42   H        -2.4540   40.8400   -2.1531  H     
43   H        -2.6395   40.7853   -0.4154  H     
44   H        -0.8791   38.9912   -0.2664  H     
45   H        -0.2785   40.5064   -0.9724  H     
46   H        -0.6274   39.1280   -2.0198  H     
47   H        -3.6450   39.0150    0.4315  H     
48   H       -10.8982   27.6523   -2.9910  H     
@<TRIPOS>BOND
     1    1    2 2
     2    1    6 1
     3    1   15 1
     4    2    3 1
     5    3    4 2
     6    4    5 1
     7    4    7 1
     8    5    6 2
     9    6   11 1
    10    7    8 am
    11    8    9 1
    12    8   10 2
    13    9   21 2
    14    9   25 1
    15   11   12 2
    16   11   13 1
    17   13   14 1
    18   15   16 2
    19   15   20 1
    20   16   17 1
    21   17   18 2
    22   18   19 1
    23   19   20 2
    24   19   27 1
    25   21   22 1
    26   21   24 1
    27   22   23 1
    28   25   26 3
    29   27   28 1
    30   28   29 1
    31   28   30 1
    32    2   31 1
    33    3   32 1
    34    5   33 1
    35    7   34 1
    36   14   35 1
    37   14   36 1
    38   14   37 1
    39   16   38 1
    40   17   39 1
    41   18   40 1
    42   20   41 1
    43   22   42 1
    44   22   43 1
    45   23   44 1
    46   23   45 1
    47   23   46 1
    48   24   47 1
    49   28   48 1
@<TRIPOS>PROPERTY_DATA
  Total_Score	| 10.4078
  Crash		| -1.6444
  Polar		| 3.0739
  FragIndex	| 1
  FragRMSD	| 0.140

