@<TRIPOS>MOLECULE
BindingDB_50359690
 44 45 0 0 0
SMALL
NO_CHARGES


@<TRIPOS>ATOM
1    C        -7.2151   33.1472   -1.2594  C     
2    C        -7.1705   33.7933   -2.5183  C     
3    C        -6.2617   34.8373   -2.7657  C     
4    C        -5.3668   35.2534   -1.7597  C     
5    C        -5.3628   34.5666   -0.5274  C     
6    C        -6.2747   33.5168   -0.2510  C     
7    N        -4.4515   36.2576   -1.9205  N     
8    C        -4.5605   37.3841   -2.6234  C     
9    C        -3.5501   38.3017   -2.5533  C     
10   O        -5.5837   37.6868   -3.2283  O     
11   C        -6.1976   32.8844    1.0195  C     
12   O        -6.4626   31.5627    1.1454  O     
13   O        -5.8678   33.6105    2.1211  O     
14   C        -5.7938   33.1508    3.4710  C     
15   C        -8.2781   32.2306   -1.0258  C     
16   C        -9.1917   32.4514    0.0307  C     
17   C       -10.2441   31.5494    0.2744  C     
18   C       -10.4067   30.4222   -0.5477  C     
19   C        -9.5143   30.1944   -1.6091  C     
20   C        -8.4626   31.0959   -1.8501  C     
21   C        -3.2707   38.9632   -1.3977  C     
22   C        -2.1348   39.8430   -1.0844  C     
23   C        -1.0872   40.1914   -2.1676  C     
24   O        -4.1344   38.7980   -0.3820  O     
25   C        -2.8518   38.4108   -3.6201  C     
26   N        -2.2777   38.4511   -4.6051  N     
27   H        -7.8219   33.5348   -3.2594  H     
28   H        -6.2512   35.2841   -3.6884  H     
29   H        -4.6731   34.8424    0.1820  H     
30   H        -3.6633   36.1948   -1.3559  H     
31   H        -6.7670   32.7834    3.7986  H     
32   H        -5.5004   33.9839    4.1096  H     
33   H        -5.0558   32.3536    3.5688  H     
34   H        -9.1024   33.2747    0.6325  H     
35   H       -10.8871   31.7109    1.0516  H     
36   H       -11.1792   29.7646   -0.3717  H     
37   H        -9.6285   29.3691   -2.1989  H     
38   H        -7.8209   30.9076   -2.6277  H     
39   H        -2.5344   40.7798   -0.6783  H     
40   H        -1.5808   39.3639   -0.2774  H     
41   H        -0.6183   39.2891   -2.5596  H     
42   H        -0.2995   40.8267   -1.7424  H     
43   H        -1.5622   40.7339   -2.9806  H     
44   H        -3.6391   38.9508    0.4554  H     
@<TRIPOS>BOND
     1    1    2 2
     2    1    6 1
     3    1   15 1
     4    2    3 1
     5    3    4 2
     6    4    5 1
     7    4    7 1
     8    5    6 2
     9    6   11 1
    10    7    8 am
    11    8    9 1
    12    8   10 2
    13    9   21 2
    14    9   25 1
    15   11   12 2
    16   11   13 1
    17   13   14 1
    18   15   16 2
    19   15   20 1
    20   16   17 1
    21   17   18 2
    22   18   19 1
    23   19   20 2
    24   21   22 1
    25   21   24 1
    26   22   23 1
    27   25   26 3
    28    2   27 1
    29    3   28 1
    30    5   29 1
    31    7   30 1
    32   14   31 1
    33   14   32 1
    34   14   33 1
    35   16   34 1
    36   17   35 1
    37   18   36 1
    38   19   37 1
    39   20   38 1
    40   22   39 1
    41   22   40 1
    42   23   41 1
    43   23   42 1
    44   23   43 1
    45   24   44 1
@<TRIPOS>PROPERTY_DATA
  Total_Score	| 9.1008
  Crash		| -1.1734
  Polar		| 2.0824
  FragIndex	| 1
  FragRMSD	| 0.267

