@<TRIPOS>MOLECULE
BindingDB_50359698
 43 44 0 0 0
SMALL
NO_CHARGES


@<TRIPOS>ATOM
1    C        -7.2130   33.2485   -1.2818  C     
2    C        -7.1000   33.8768   -2.5464  C     
3    C        -6.1766   34.9083   -2.7611  C     
4    C        -5.3266   35.3352   -1.7188  C     
5    C        -5.3879   34.6670   -0.4806  C     
6    C        -6.3173   33.6237   -0.2342  C     
7    N        -4.4151   36.3524   -1.8441  N     
8    C        -4.4916   37.4286   -2.6211  C     
9    C        -3.5270   38.3777   -2.5493  C     
10   O        -5.4823   37.6689   -3.3058  O     
11   C        -6.2931   32.9892    1.0395  C     
12   O        -6.6400   31.6852    1.1791  O     
13   O        -5.8916   33.6773    2.1431  O     
14   C        -5.8212   33.1794    3.4855  C     
15   C        -8.2869   32.3332   -1.0993  C     
16   C        -8.3361   31.1093   -1.8061  C     
17   C        -9.3974   30.2070   -1.5975  C     
18   C       -10.4148   30.5477   -0.6834  C     
19   N       -10.3562   31.7351   -0.0235  N     
20   C        -9.3436   32.6193   -0.1999  C     
21   C        -3.3298   39.1474   -1.4459  C     
22   C        -2.3671   40.2553   -1.3394  C     
23   C        -0.8988   39.7765   -1.2555  C     
24   O        -4.1002   38.9350   -0.3776  O     
25   C        -2.8061   38.5188   -3.5943  C     
26   N        -2.1560   38.6181   -4.5385  N     
27   H        -7.7192   33.6210   -3.3183  H     
28   H        -6.1107   35.3399   -3.6846  H     
29   H        -4.7387   34.9547    0.2574  H     
30   H        -3.6732   36.3319   -1.2136  H     
31   H        -6.8069   32.8442    3.8116  H     
32   H        -5.4926   33.9892    4.1438  H     
33   H        -5.1078   32.3556    3.5469  H     
34   H        -7.5999   30.8582   -2.4686  H     
35   H        -9.4339   29.3183   -2.1005  H     
36   H       -11.1992   29.9138   -0.5199  H     
37   H        -9.3656   33.4963    0.3209  H     
38   H        -2.4626   40.9371   -2.1990  H     
39   H        -2.5848   40.8654   -0.4474  H     
40   H        -0.7434   39.1923   -0.3427  H     
41   H        -0.2301   40.6423   -1.2487  H     
42   H        -0.6533   39.1571   -2.1231  H     
43   H        -3.5075   38.9974    0.4102  H     
@<TRIPOS>BOND
     1    1    2 2
     2    1    6 1
     3    1   15 1
     4    2    3 1
     5    3    4 2
     6    4    5 1
     7    4    7 1
     8    5    6 2
     9    6   11 1
    10    7    8 am
    11    8    9 1
    12    8   10 2
    13    9   21 2
    14    9   25 1
    15   11   12 2
    16   11   13 1
    17   13   14 1
    18   15   16 2
    19   15   20 1
    20   16   17 1
    21   17   18 2
    22   18   19 1
    23   19   20 2
    24   21   22 1
    25   21   24 1
    26   22   23 1
    27   25   26 3
    28    2   27 1
    29    3   28 1
    30    5   29 1
    31    7   30 1
    32   14   31 1
    33   14   32 1
    34   14   33 1
    35   16   34 1
    36   17   35 1
    37   18   36 1
    38   20   37 1
    39   22   38 1
    40   22   39 1
    41   23   40 1
    42   23   41 1
    43   23   42 1
    44   24   43 1
@<TRIPOS>PROPERTY_DATA
  Total_Score	| 8.7132
  Crash		| -0.9639
  Polar		| 2.0870
  FragIndex	| 1
  FragRMSD	| 0.095

