@<TRIPOS>MOLECULE
BindingDB_50359696
 44 45 0 0 0
SMALL
NO_CHARGES


@<TRIPOS>ATOM
1    C        -7.1608   33.2261   -1.1984  C     
2    C        -7.0909   33.8629   -2.4613  C     
3    C        -6.1909   34.9155   -2.6947  C     
4    C        -5.3245   35.3622   -1.6708  C     
5    C        -5.3548   34.6916   -0.4290  C     
6    C        -6.2570   33.6272   -0.1698  C     
7    N        -4.4377   36.3992   -1.8167  N     
8    C        -4.5507   37.4820   -2.5859  C     
9    C        -3.5606   38.4193   -2.5512  C     
10   O        -5.5655   37.7248   -3.2306  O     
11   C        -6.2071   33.0101    1.1139  C     
12   O        -6.5514   31.7074    1.2606  O     
13   O        -5.8264   33.7203    2.2122  O     
14   C        -5.7865   33.2491    3.5635  C     
15   C        -8.2273   32.3069   -0.9812  C     
16   C        -9.1517   32.5083    0.0733  C     
17   C       -10.1929   31.5902    0.3077  C     
18   C       -10.3433   30.4635   -0.5178  C     
19   C        -9.4332   30.2508   -1.5720  C     
20   C        -8.3828   31.1682   -1.8023  C     
21   C        -3.3365   39.2177   -1.4753  C     
22   C        -2.3198   40.2793   -1.3791  C     
23   C        -0.8848   39.7193   -1.2541  C     
24   O        -4.0835   39.0170   -0.3934  O     
25   C        -2.8300   38.5032   -3.6001  C     
26   N        -2.1718   38.5386   -4.5425  N     
27   F        -9.5590   29.1925   -2.3272  F     
28   H        -7.7253   33.5910   -3.2179  H     
29   H        -6.1680   35.3477   -3.6230  H     
30   H        -4.6930   34.9908    0.2997  H     
31   H        -3.6686   36.3674   -1.2205  H     
32   H        -6.7887   32.9634    3.8936  H     
33   H        -5.4134   34.0495    4.2049  H     
34   H        -5.1214   32.3870    3.6444  H     
35   H        -9.0798   33.3291    0.6752  H     
36   H       -10.8382   31.7384    1.0807  H     
37   H       -11.1141   29.8089   -0.3594  H     
38   H        -7.7300   30.9883   -2.5720  H     
39   H        -2.3496   40.9419   -2.2590  H     
40   H        -2.5576   40.9160   -0.5119  H     
41   H        -0.8046   39.0787   -0.3657  H     
42   H        -0.1590   40.5442   -1.1751  H     
43   H        -0.6512   39.1310   -2.1528  H     
44   H        -3.4635   38.9818    0.3739  H     
@<TRIPOS>BOND
     1    1    2 2
     2    1    6 1
     3    1   15 1
     4    2    3 1
     5    3    4 2
     6    4    5 1
     7    4    7 1
     8    5    6 2
     9    6   11 1
    10    7    8 am
    11    8    9 1
    12    8   10 2
    13    9   21 2
    14    9   25 1
    15   11   12 2
    16   11   13 1
    17   13   14 1
    18   15   16 2
    19   15   20 1
    20   16   17 1
    21   17   18 2
    22   18   19 1
    23   19   20 2
    24   19   27 1
    25   21   22 1
    26   21   24 1
    27   22   23 1
    28   25   26 3
    29    2   28 1
    30    3   29 1
    31    5   30 1
    32    7   31 1
    33   14   32 1
    34   14   33 1
    35   14   34 1
    36   16   35 1
    37   17   36 1
    38   18   37 1
    39   20   38 1
    40   22   39 1
    41   22   40 1
    42   23   41 1
    43   23   42 1
    44   23   43 1
    45   24   44 1
@<TRIPOS>PROPERTY_DATA
  Total_Score	| 8.7822
  Crash		| -1.2168
  Polar		| 2.1038
  FragIndex	| 1
  FragRMSD	| 0.118

