@<TRIPOS>MOLECULE
BindingDB_50359693
 44 45 0 0 0
SMALL
NO_CHARGES


@<TRIPOS>ATOM
1    C        -7.2308   33.1611   -1.1527  C     
2    C        -7.1636   33.7830   -2.4321  C     
3    C        -6.2224   34.7861   -2.7150  C     
4    C        -5.3265   35.2320   -1.7170  C     
5    C        -5.3293   34.5703   -0.4666  C     
6    C        -6.2571   33.5304   -0.1759  C     
7    N        -4.4113   36.2282   -1.8948  N     
8    C        -4.5459   37.3617   -2.5773  C     
9    C        -3.5755   38.3089   -2.5133  C     
10   O        -5.5913   37.6573   -3.1451  O     
11   C        -6.1653   32.8997    1.1003  C     
12   O        -6.3506   31.5579    1.2163  O     
13   O        -5.8604   33.6432    2.2035  O     
14   C        -5.7922   33.1572    3.5490  C     
15   C        -8.3171   32.2630   -0.8995  C     
16   C        -9.0524   32.3411    0.3146  C     
17   C       -10.1354   31.4708    0.5644  C     
18   C       -10.5058   30.5071   -0.4015  C     
19   C        -9.8053   30.4323   -1.6185  C     
20   C        -8.7096   31.2946   -1.8645  C     
21   C        -3.4055   39.0860   -1.4146  C     
22   C        -2.4313   40.1822   -1.2929  C     
23   C        -0.9602   39.7066   -1.2029  C     
24   O        -4.2301   38.9073   -0.3783  O     
25   C        -2.8387   38.4224   -3.5524  C     
26   N        -2.1876   38.5016   -4.4952  N     
27   Cl      -10.3334   29.3587   -2.8212  Cl    
28   H        -7.8296   33.5438   -3.1619  H     
29   H        -6.1967   35.1884   -3.6545  H     
30   H        -4.6446   34.8626    0.2455  H     
31   H        -3.6004   36.1537   -1.3557  H     
32   H        -6.7559   32.7535    3.8765  H     
33   H        -5.5164   33.9802    4.2095  H     
34   H        -5.0370   32.3750    3.6245  H     
35   H        -8.8355   33.0603    1.0105  H     
36   H       -10.6611   31.5343    1.4404  H     
37   H       -11.2971   29.8848   -0.2168  H     
38   H        -8.2082   31.2213   -2.7526  H     
39   H        -2.5400   40.8685   -2.1373  H     
40   H        -2.6478   40.7612   -0.3946  H     
41   H        -0.8291   39.0196   -0.3647  H     
42   H        -0.3016   40.5665   -1.0501  H     
43   H        -0.6559   39.2003   -2.1300  H     
44   H        -3.6601   38.9085    0.4255  H     
@<TRIPOS>BOND
     1    1    2 2
     2    1    6 1
     3    1   15 1
     4    2    3 1
     5    3    4 2
     6    4    5 1
     7    4    7 1
     8    5    6 2
     9    6   11 1
    10    7    8 am
    11    8    9 1
    12    8   10 2
    13    9   21 2
    14    9   25 1
    15   11   12 2
    16   11   13 1
    17   13   14 1
    18   15   16 2
    19   15   20 1
    20   16   17 1
    21   17   18 2
    22   18   19 1
    23   19   20 2
    24   19   27 1
    25   21   22 1
    26   21   24 1
    27   22   23 1
    28   25   26 3
    29    2   28 1
    30    3   29 1
    31    5   30 1
    32    7   31 1
    33   14   32 1
    34   14   33 1
    35   14   34 1
    36   16   35 1
    37   17   36 1
    38   18   37 1
    39   20   38 1
    40   22   39 1
    41   22   40 1
    42   23   41 1
    43   23   42 1
    44   23   43 1
    45   24   44 1
@<TRIPOS>PROPERTY_DATA
  Total_Score	| 8.6344
  Crash		| -1.4538
  Polar		| 2.1317
  FragIndex	| 1
  FragRMSD	| 0.225

