@<TRIPOS>MOLECULE
BindingDB_50359697
 44 45 0 0 0
SMALL
NO_CHARGES


@<TRIPOS>ATOM
1    C        -7.1733   33.0954   -1.1704  C     
2    C        -7.1261   33.7509   -2.4248  C     
3    C        -6.2346   34.8149   -2.6660  C     
4    C        -5.3611   35.2555   -1.6412  C     
5    C        -5.3782   34.5741   -0.4076  C     
6    C        -6.2706   33.5020   -0.1492  C     
7    N        -4.4619   36.2746   -1.7868  N     
8    C        -4.5467   37.3769   -2.5406  C     
9    C        -3.5226   38.2876   -2.4947  C     
10   O        -5.5377   37.6272   -3.2333  O     
11   C        -6.2023   32.8845    1.1243  C     
12   O        -6.4829   31.5664    1.2658  O     
13   O        -5.8586   33.6158    2.2173  O     
14   C        -5.7483   33.1675    3.5693  C     
15   C        -8.1897   32.1213   -0.9649  C     
16   C        -9.0571   32.2349    0.1512  C     
17   C       -10.1200   31.3322    0.3411  C     
18   C       -10.3463   30.3059   -0.5930  C     
19   C        -9.4864   30.1711   -1.7008  C     
20   C        -8.4164   31.0645   -1.8858  C     
21   C        -3.2362   38.9956   -1.3585  C     
22   C        -2.0399   39.8022   -1.0443  C     
23   C        -1.0032   40.1435   -2.1530  C     
24   O        -4.1114   38.8874   -0.3402  O     
25   C        -2.8336   38.3952   -3.5678  C     
26   N        -2.2362   38.4368   -4.5499  N     
27   F       -11.3569   29.4890   -0.4410  F     
28   F        -7.6455   30.8913   -2.9265  F     
29   H        -7.7665   33.4772   -3.1758  H     
30   H        -6.2298   35.2532   -3.5888  H     
31   H        -4.7135   34.8819    0.3114  H     
32   H        -3.6753   36.2263   -1.2034  H     
33   H        -6.7114   32.8046    3.9327  H     
34   H        -5.4293   34.0071    4.1871  H     
35   H        -5.0060   32.3708    3.6401  H     
36   H        -8.9279   32.9820    0.8334  H     
37   H       -10.7425   31.4443    1.1471  H     
38   H        -9.6572   29.4205   -2.3772  H     
39   H        -2.3675   40.7548   -0.6144  H     
40   H        -1.4935   39.2566   -0.2754  H     
41   H        -0.5442   39.2200   -2.5486  H     
42   H        -0.2055   40.7888   -1.7447  H     
43   H        -1.5158   40.6910   -2.9787  H     
44   H        -3.5944   38.9545    0.5001  H     
@<TRIPOS>BOND
     1    1    2 2
     2    1    6 1
     3    1   15 1
     4    2    3 1
     5    3    4 2
     6    4    5 1
     7    4    7 1
     8    5    6 2
     9    6   11 1
    10    7    8 am
    11    8    9 1
    12    8   10 2
    13    9   21 2
    14    9   25 1
    15   11   12 2
    16   11   13 1
    17   13   14 1
    18   15   16 2
    19   15   20 1
    20   16   17 1
    21   17   18 2
    22   18   19 1
    23   18   27 1
    24   19   20 2
    25   20   28 1
    26   21   22 1
    27   21   24 1
    28   22   23 1
    29   25   26 3
    30    2   29 1
    31    3   30 1
    32    5   31 1
    33    7   32 1
    34   14   33 1
    35   14   34 1
    36   14   35 1
    37   16   36 1
    38   17   37 1
    39   19   38 1
    40   22   39 1
    41   22   40 1
    42   23   41 1
    43   23   42 1
    44   23   43 1
    45   24   44 1
@<TRIPOS>PROPERTY_DATA
  Total_Score	| 8.8666
  Crash		| -1.3108
  Polar		| 2.0645
  FragIndex	| 1
  FragRMSD	| 0.296

