@<TRIPOS>MOLECULE
BindingDB_50359694
 44 45 0 0 0
SMALL
NO_CHARGES


@<TRIPOS>ATOM
1    C        -7.0272   33.4409   -1.4265  C     
2    C        -6.9224   34.1170   -2.6661  C     
3    C        -6.0356   35.1903   -2.8263  C     
4    C        -5.2378   35.6286   -1.7477  C     
5    C        -5.3369   34.9489   -0.5170  C     
6    C        -6.2148   33.8509   -0.3283  C     
7    N        -4.3165   36.6428   -1.8406  N     
8    C        -4.3125   37.7034   -2.6400  C     
9    C        -3.3110   38.6133   -2.5281  C     
10   O        -5.2538   37.9656   -3.3804  O     
11   C        -6.2092   33.1918    0.9335  C     
12   O        -6.4782   31.8668    1.0344  O     
13   O        -5.8645   33.8785    2.0608  O     
14   C        -5.8032   33.3496    3.3903  C     
15   C        -7.9945   32.4080   -1.3400  C     
16   C        -9.1175   32.5319   -0.4919  C     
17   C       -10.0989   31.5187   -0.4621  C     
18   C        -9.9616   30.3781   -1.2774  C     
19   C        -8.8268   30.2389   -2.0973  C     
20   C        -7.8545   31.2518   -2.1358  C     
21   C        -3.1349   39.3397   -1.3958  C     
22   C        -2.0829   40.3442   -1.1909  C     
23   C        -0.6818   39.7130   -1.0170  C     
24   O        -3.9956   39.1618   -0.3874  O     
25   C        -2.5394   38.7197   -3.5430  C     
26   N        -1.8511   38.7977   -4.4589  N     
27   Cl      -11.1499   29.1754   -1.2891  Cl    
28   H        -7.4939   33.8353   -3.4680  H     
29   H        -5.9683   35.6383   -3.7426  H     
30   H        -4.7521   35.2661    0.2596  H     
31   H        -3.6059   36.6197   -1.1832  H     
32   H        -6.7962   33.0169    3.7029  H     
33   H        -5.4582   34.1288    4.0761  H     
34   H        -5.1044   32.5105    3.4281  H     
35   H        -9.2438   33.3655    0.0891  H     
36   H       -10.9062   31.6212    0.1571  H     
37   H        -8.7015   29.4004   -2.6681  H     
38   H        -7.0427   31.1355   -2.7515  H     
39   H        -2.0737   41.0497   -2.0248  H     
40   H        -2.2985   40.9303   -0.2923  H     
41   H        -0.7042   38.9513   -0.2336  H     
42   H         0.0459   40.4783   -0.7270  H     
43   H        -0.3471   39.2554   -1.9496  H     
44   H        -3.4667   39.1634    0.4391  H     
@<TRIPOS>BOND
     1    1    2 2
     2    1    6 1
     3    1   15 1
     4    2    3 1
     5    3    4 2
     6    4    5 1
     7    4    7 1
     8    5    6 2
     9    6   11 1
    10    7    8 am
    11    8    9 1
    12    8   10 2
    13    9   21 2
    14    9   25 1
    15   11   12 2
    16   11   13 1
    17   13   14 1
    18   15   16 2
    19   15   20 1
    20   16   17 1
    21   17   18 2
    22   18   19 1
    23   18   27 1
    24   19   20 2
    25   21   22 1
    26   21   24 1
    27   22   23 1
    28   25   26 3
    29    2   28 1
    30    3   29 1
    31    5   30 1
    32    7   31 1
    33   14   32 1
    34   14   33 1
    35   14   34 1
    36   16   35 1
    37   17   36 1
    38   19   37 1
    39   20   38 1
    40   22   39 1
    41   22   40 1
    42   23   41 1
    43   23   42 1
    44   23   43 1
    45   24   44 1
@<TRIPOS>PROPERTY_DATA
  Total_Score	| 7.0633
  Crash		| -2.5470
  Polar		| 1.9775
  FragIndex	| 1
  FragRMSD	| 0.394

