@<TRIPOS>MOLECULE
BindingDB_50359691
 44 45 0 0 0
SMALL
NO_CHARGES


@<TRIPOS>ATOM
1    C        -7.1326   33.2576   -1.2558  C     
2    C        -7.0450   33.8738   -2.5271  C     
3    C        -6.1226   34.9034   -2.7689  C     
4    C        -5.2677   35.3557   -1.7416  C     
5    C        -5.3136   34.7037   -0.4920  C     
6    C        -6.2282   33.6547   -0.2248  C     
7    N        -4.3613   36.3704   -1.8864  N     
8    C        -4.4512   37.4669   -2.6329  C     
9    C        -3.4762   38.4079   -2.5463  C     
10   O        -5.4560   37.7399   -3.2801  O     
11   C        -6.1843   33.0347    1.0558  C     
12   O        -6.4436   31.7110    1.1899  O     
13   O        -5.8513   33.7606    2.1583  O     
14   C        -5.7769   33.2855    3.5047  C     
15   C        -8.1885   32.3258   -1.0478  C     
16   C        -9.1663   32.5653   -0.0537  C     
17   C       -10.2095   31.6472    0.1627  C     
18   C       -10.2996   30.4836   -0.6216  C     
19   C        -9.3394   30.2389   -1.6196  C     
20   C        -8.2937   31.1555   -1.8346  C     
21   C        -3.3080   39.1691   -1.4366  C     
22   C        -2.3219   40.2476   -1.2923  C     
23   C        -0.8665   39.7387   -1.1773  C     
24   O        -4.1314   38.9728   -0.3990  O     
25   C        -2.7328   38.5232   -3.5835  C     
26   N        -2.0627   38.6156   -4.5115  N     
27   F       -11.2722   29.6368   -0.4279  F     
28   H        -7.6774   33.6013   -3.2861  H     
29   H        -6.0827   35.3167   -3.7027  H     
30   H        -4.6617   35.0077    0.2389  H     
31   H        -3.6018   36.3375   -1.2834  H     
32   H        -6.7550   32.9297    3.8342  H     
33   H        -5.4631   34.1064    4.1502  H     
34   H        -5.0508   32.4744    3.5822  H     
35   H        -9.1281   33.4123    0.5205  H     
36   H       -10.9008   31.8310    0.8930  H     
37   H        -9.3972   29.3925   -2.1908  H     
38   H        -7.6033   30.9573   -2.5640  H     
39   H        -2.4012   40.9360   -2.1382  H     
40   H        -2.5387   40.8346   -0.3946  H     
41   H        -0.7709   39.0464   -0.3381  H     
42   H        -0.1954   40.5836   -1.0093  H     
43   H        -0.5537   39.2327   -2.0909  H     
44   H        -3.5824   39.0246    0.4103  H     
@<TRIPOS>BOND
     1    1    2 2
     2    1    6 1
     3    1   15 1
     4    2    3 1
     5    3    4 2
     6    4    5 1
     7    4    7 1
     8    5    6 2
     9    6   11 1
    10    7    8 am
    11    8    9 1
    12    8   10 2
    13    9   21 2
    14    9   25 1
    15   11   12 2
    16   11   13 1
    17   13   14 1
    18   15   16 2
    19   15   20 1
    20   16   17 1
    21   17   18 2
    22   18   19 1
    23   18   27 1
    24   19   20 2
    25   21   22 1
    26   21   24 1
    27   22   23 1
    28   25   26 3
    29    2   28 1
    30    3   29 1
    31    5   30 1
    32    7   31 1
    33   14   32 1
    34   14   33 1
    35   14   34 1
    36   16   35 1
    37   17   36 1
    38   19   37 1
    39   20   38 1
    40   22   39 1
    41   22   40 1
    42   23   41 1
    43   23   42 1
    44   23   43 1
    45   24   44 1
@<TRIPOS>PROPERTY_DATA
  Total_Score	| 8.7684
  Crash		| -1.2509
  Polar		| 2.1237
  FragIndex	| 1
  FragRMSD	| 0.077

