@<TRIPOS>MOLECULE
BindingDB_50359701
 44 45 0 0 0
SMALL
NO_CHARGES


@<TRIPOS>ATOM
1    C        -7.1677   33.2450   -1.2581  C     
2    C        -7.1025   33.9105   -2.5113  C     
3    C        -6.2136   34.9720   -2.7254  C     
4    C        -5.3586   35.4155   -1.6879  C     
5    C        -5.3843   34.7269   -0.4560  C     
6    C        -6.2765   33.6494   -0.2212  C     
7    N        -4.4393   36.4241   -1.8241  N     
8    C        -4.4969   37.5070   -2.5950  C     
9    C        -3.4807   38.4135   -2.5324  C     
10   O        -5.4913   37.7862   -3.2582  O     
11   C        -6.2195   33.0111    1.0470  C     
12   O        -6.5081   31.6948    1.1736  O     
13   O        -5.8492   33.7212    2.1466  O     
14   C        -5.7735   33.2537    3.4972  C     
15   C        -8.1730   32.2534   -1.0911  C     
16   C        -8.2894   31.1719   -1.9963  C     
17   C        -9.3106   30.2150   -1.8366  C     
18   C       -10.2044   30.2988   -0.7505  C     
19   C       -10.0884   31.3671    0.1660  C     
20   C        -9.0815   32.3344   -0.0043  C     
21   C        -3.2810   39.1874   -1.4374  C     
22   C        -2.2456   40.2204   -1.3027  C     
23   C        -0.7980   39.6702   -1.2239  C     
24   O        -4.1115   39.0483   -0.4012  O     
25   C        -2.7435   38.4966   -3.5742  C     
26   N        -2.0685   38.5397   -4.5013  N     
27   F       -11.1440   29.4025   -0.6135  F     
28   F       -10.9008   31.4499    1.1888  F     
29   H        -7.7297   33.6397   -3.2721  H     
30   H        -6.2011   35.4148   -3.6433  H     
31   H        -4.7381   35.0240    0.2779  H     
32   H        -3.6866   36.3794   -1.2217  H     
33   H        -6.7501   32.9022    3.8308  H     
34   H        -5.4605   34.0821    4.1335  H     
35   H        -5.0480   32.4406    3.5685  H     
36   H        -7.6336   31.0639   -2.7770  H     
37   H        -9.4047   29.4548   -2.5152  H     
38   H        -9.0391   33.1259    0.6455  H     
39   H        -2.3176   40.9269   -2.1378  H     
40   H        -2.4139   40.8027   -0.3873  H     
41   H        -0.7111   38.9491   -0.4009  H     
42   H        -0.1056   40.4981   -1.0367  H     
43   H        -0.5081   39.1871   -2.1615  H     
44   H        -3.5475   38.9594    0.3892  H     
@<TRIPOS>BOND
     1    1    2 2
     2    1    6 1
     3    1   15 1
     4    2    3 1
     5    3    4 2
     6    4    5 1
     7    4    7 1
     8    5    6 2
     9    6   11 1
    10    7    8 am
    11    8    9 1
    12    8   10 2
    13    9   21 2
    14    9   25 1
    15   11   12 2
    16   11   13 1
    17   13   14 1
    18   15   16 2
    19   15   20 1
    20   16   17 1
    21   17   18 2
    22   18   19 1
    23   18   27 1
    24   19   20 2
    25   19   28 1
    26   21   22 1
    27   21   24 1
    28   22   23 1
    29   25   26 3
    30    2   29 1
    31    3   30 1
    32    5   31 1
    33    7   32 1
    34   14   33 1
    35   14   34 1
    36   14   35 1
    37   16   36 1
    38   17   37 1
    39   20   38 1
    40   22   39 1
    41   22   40 1
    42   23   41 1
    43   23   42 1
    44   23   43 1
    45   24   44 1
@<TRIPOS>PROPERTY_DATA
  Total_Score	| 7.9565
  Crash		| -1.4224
  Polar		| 2.1034
  FragIndex	| 1
  FragRMSD	| 0.153

