@<TRIPOS>MOLECULE
BindingDB_50359700
 43 44 0 0 0
SMALL
NO_CHARGES


@<TRIPOS>ATOM
1    C        -7.1657   33.2764   -1.3009  C     
2    C        -7.0703   33.9292   -2.5553  C     
3    C        -6.1661   34.9844   -2.7518  C     
4    C        -5.3276   35.4279   -1.7005  C     
5    C        -5.3929   34.7433   -0.4712  C     
6    C        -6.2934   33.6663   -0.2405  C     
7    N        -4.4338   36.4582   -1.8126  N     
8    C        -4.4881   37.5209   -2.6131  C     
9    C        -3.4876   38.4439   -2.5427  C     
10   O        -5.4650   37.7632   -3.3161  O     
11   C        -6.2559   33.0031    1.0154  C     
12   O        -6.4913   31.6728    1.1121  O     
13   O        -5.9464   33.6934    2.1472  O     
14   C        -5.9033   33.1838    3.4814  C     
15   C        -8.2150   32.3273   -1.1397  C     
16   C        -8.2386   31.1290   -1.8917  C     
17   C        -9.2772   30.2025   -1.7173  C     
18   C       -10.3040   30.4863   -0.7962  C     
19   N       -10.2700   31.6439   -0.0854  N     
20   C        -9.2762   32.5574   -0.2308  C     
21   C        -3.2740   39.2175   -1.4485  C     
22   C        -2.2703   40.2875   -1.3416  C     
23   C        -0.8388   39.7121   -1.2357  C     
24   O        -4.0638   39.0306   -0.3901  O     
25   C        -2.7584   38.5488   -3.5901  C     
26   N        -2.0865   38.6008   -4.5185  N     
27   F       -11.2838   29.6518   -0.6108  F     
28   H        -7.6939   33.6703   -3.3333  H     
29   H        -6.1315   35.4240   -3.6758  H     
30   H        -4.7628   35.0365    0.2778  H     
31   H        -3.7081   36.4475   -1.1635  H     
32   H        -6.9028   32.8760    3.7970  H     
33   H        -5.5498   33.9694    4.1506  H     
34   H        -5.2220   32.3315    3.5444  H     
35   H        -7.4942   30.9203   -2.5603  H     
36   H        -9.2866   29.3349   -2.2542  H     
37   H        -9.3203   33.4176    0.3272  H     
38   H        -2.3134   40.9846   -2.1954  H     
39   H        -2.4780   40.8814   -0.4416  H     
40   H        -0.7634   39.0161   -0.3853  H     
41   H        -0.1336   40.5444   -1.0848  H     
42   H        -0.5717   39.1802   -2.1606  H     
43   H        -3.4781   38.9994    0.3980  H     
@<TRIPOS>BOND
     1    1    2 2
     2    1    6 1
     3    1   15 1
     4    2    3 1
     5    3    4 2
     6    4    5 1
     7    4    7 1
     8    5    6 2
     9    6   11 1
    10    7    8 am
    11    8    9 1
    12    8   10 2
    13    9   21 2
    14    9   25 1
    15   11   12 2
    16   11   13 1
    17   13   14 1
    18   15   16 2
    19   15   20 1
    20   16   17 1
    21   17   18 2
    22   18   19 1
    23   18   27 1
    24   19   20 2
    25   21   22 1
    26   21   24 1
    27   22   23 1
    28   25   26 3
    29    2   28 1
    30    3   29 1
    31    5   30 1
    32    7   31 1
    33   14   32 1
    34   14   33 1
    35   14   34 1
    36   16   35 1
    37   17   36 1
    38   20   37 1
    39   22   38 1
    40   22   39 1
    41   23   40 1
    42   23   41 1
    43   23   42 1
    44   24   43 1
@<TRIPOS>PROPERTY_DATA
  Total_Score	| 8.3677
  Crash		| -1.1047
  Polar		| 2.1009
  FragIndex	| 1
  FragRMSD	| 0.121

