@<TRIPOS>MOLECULE
BindingDB_50359699
 47 48 0 0 0
SMALL
NO_CHARGES


@<TRIPOS>ATOM
1    C        -7.2180   33.2600   -1.3707  C     
2    C        -7.1681   33.9478   -2.6070  C     
3    C        -6.2455   34.9784   -2.8271  C     
4    C        -5.3512   35.3614   -1.8030  C     
5    C        -5.3670   34.6472   -0.5849  C     
6    C        -6.2885   33.6004   -0.3438  C     
7    N        -4.4295   36.3592   -1.9258  N     
8    C        -4.5031   37.4900   -2.6267  C     
9    C        -3.4672   38.3768   -2.5447  C     
10   O        -5.5072   37.8115   -3.2524  O     
11   C        -6.2421   32.9435    0.9155  C     
12   O        -6.5515   31.6284    1.0255  O     
13   O        -5.9240   33.6620    2.0282  O     
14   C        -5.8897   33.1850    3.3768  C     
15   C        -8.2586   32.3147   -1.1776  C     
16   C        -9.1550   32.5189   -0.0994  C     
17   C       -10.1682   31.5920    0.1863  C     
18   C       -10.3136   30.4463   -0.6164  C     
19   C        -9.4368   30.2315   -1.6968  C     
20   C        -8.4102   31.1585   -2.0025  C     
21   C        -3.1862   39.0247   -1.3882  C     
22   C        -2.0445   39.8964   -1.0757  C     
23   C        -0.9870   40.2256   -2.1588  C     
24   O        -4.0644   38.8935   -0.3822  O     
25   C        -2.7620   38.4760   -3.6028  C     
26   N        -2.1868   38.5075   -4.5951  N     
27   F       -11.2591   29.5835   -0.3575  F     
28   C        -7.5191   30.8948   -3.1659  C     
29   H        -7.8232   33.7226   -3.3609  H     
30   H        -6.2322   35.4402   -3.7391  H     
31   H        -4.6835   34.8987    0.1367  H     
32   H        -3.6532   36.2790   -1.3513  H     
33   H        -6.8715   32.8115    3.6659  H     
34   H        -5.6199   34.0140    4.0327  H     
35   H        -5.1508   32.3913    3.4831  H     
36   H        -9.0735   33.3447    0.4990  H     
37   H       -10.7926   31.7442    0.9802  H     
38   H        -9.5611   29.3901   -2.2706  H     
39   H        -2.4360   40.8421   -0.6951  H     
40   H        -1.4945   39.4312   -0.2541  H     
41   H        -0.5224   39.3065   -2.5194  H     
42   H        -0.2067   40.8686   -1.7336  H     
43   H        -1.4511   40.7560   -2.9893  H     
44   H        -3.5602   38.9517    0.4593  H     
45   H        -7.7421   31.6037   -3.9654  H     
46   H        -7.6437   29.8848   -3.5663  H     
47   H        -6.4726   31.0133   -2.8716  H     
@<TRIPOS>BOND
     1    1    2 2
     2    1    6 1
     3    1   15 1
     4    2    3 1
     5    3    4 2
     6    4    5 1
     7    4    7 1
     8    5    6 2
     9    6   11 1
    10    7    8 am
    11    8    9 1
    12    8   10 2
    13    9   21 2
    14    9   25 1
    15   11   12 2
    16   11   13 1
    17   13   14 1
    18   15   16 2
    19   15   20 1
    20   16   17 1
    21   17   18 2
    22   18   19 1
    23   18   27 1
    24   19   20 2
    25   20   28 1
    26   21   22 1
    27   21   24 1
    28   22   23 1
    29   25   26 3
    30    2   29 1
    31    3   30 1
    32    5   31 1
    33    7   32 1
    34   14   33 1
    35   14   34 1
    36   14   35 1
    37   16   36 1
    38   17   37 1
    39   19   38 1
    40   22   39 1
    41   22   40 1
    42   23   41 1
    43   23   42 1
    44   23   43 1
    45   24   44 1
    46   28   45 1
    47   28   46 1
    48   28   47 1
@<TRIPOS>PROPERTY_DATA
  Total_Score	| 9.4369
  Crash		| -1.6441
  Polar		| 2.0575
  FragIndex	| 1
  FragRMSD	| 0.259

