@<TRIPOS>MOLECULE
BindingDB_50359702
 44 45 0 0 0
SMALL
NO_CHARGES


@<TRIPOS>ATOM
1    C        -7.1129   33.2540   -1.2708  C     
2    C        -7.0411   33.8693   -2.5431  C     
3    C        -6.1313   34.9064   -2.7928  C     
4    C        -5.2729   35.3806   -1.7686  C     
5    C        -5.3104   34.7207   -0.5171  C     
6    C        -6.2003   33.6526   -0.2527  C     
7    N        -4.3828   36.4180   -1.8949  N     
8    C        -4.3722   37.4644   -2.7219  C     
9    C        -3.4135   38.4164   -2.5834  C     
10   O        -5.2122   37.6056   -3.6204  O     
11   C        -6.1265   33.0240    1.0184  C     
12   O        -6.3402   31.6893    1.1359  O     
13   O        -5.8107   33.7401    2.1308  O     
14   C        -5.7324   33.2495    3.4705  C     
15   C        -8.1577   32.3116   -1.0532  C     
16   C        -9.0929   32.4925    0.0024  C     
17   C       -10.1235   31.5643    0.2280  C     
18   C       -10.2754   30.4478   -0.6247  C     
19   C        -9.3660   30.2703   -1.6922  C     
20   C        -8.3109   31.1785   -1.8889  C     
21   C        -3.2707   39.1535   -1.4457  C     
22   C        -2.2945   40.2290   -1.2260  C     
23   C        -0.8370   39.7383   -1.0477  C     
24   O        -4.1242   38.9442   -0.4419  O     
25   C        -2.6291   38.5782   -3.5932  C     
26   N        -1.9432   38.6989   -4.5060  N     
27   F       -11.2500   29.6049   -0.4423  F     
28   F        -9.5042   29.2578   -2.5072  F     
29   F       -10.9594   31.7492    1.2191  F     
30   H        -7.6749   33.5989   -3.2970  H     
31   H        -6.1022   35.2979   -3.7344  H     
32   H        -4.6531   35.0273    0.2081  H     
33   H        -3.6873   36.4389   -1.2195  H     
34   H        -6.7110   32.8737    3.7904  H     
35   H        -5.4263   34.0616    4.1291  H     
36   H        -4.9986   32.4388    3.5323  H     
37   H        -9.0249   33.3070    0.6119  H     
38   H        -7.6477   31.0110   -2.6489  H     
39   H        -2.3420   40.9319   -2.0583  H     
40   H        -2.5611   40.7907   -0.3237  H     
41   H        -0.7747   38.9930   -0.2578  H     
42   H        -0.2027   40.5894   -0.7713  H     
43   H        -0.4485   39.3184   -1.9719  H     
44   H        -3.6108   39.0914    0.3917  H     
@<TRIPOS>BOND
     1    1    2 2
     2    1    6 1
     3    1   15 1
     4    2    3 1
     5    3    4 2
     6    4    5 1
     7    4    7 1
     8    5    6 2
     9    6   11 1
    10    7    8 am
    11    8    9 1
    12    8   10 2
    13    9   21 2
    14    9   25 1
    15   11   12 2
    16   11   13 1
    17   13   14 1
    18   15   16 2
    19   15   20 1
    20   16   17 1
    21   17   18 2
    22   17   29 1
    23   18   19 1
    24   18   27 1
    25   19   20 2
    26   19   28 1
    27   21   22 1
    28   21   24 1
    29   22   23 1
    30   25   26 3
    31    2   30 1
    32    3   31 1
    33    5   32 1
    34    7   33 1
    35   14   34 1
    36   14   35 1
    37   14   36 1
    38   16   37 1
    39   20   38 1
    40   22   39 1
    41   22   40 1
    42   23   41 1
    43   23   42 1
    44   23   43 1
    45   24   44 1
@<TRIPOS>PROPERTY_DATA
  Total_Score	| 8.2490
  Crash		| -1.7821
  Polar		| 2.0845
  FragIndex	| 1
  FragRMSD	| 0.136

