@<TRIPOS>MOLECULE
BindingDB_50359692
 44 45 0 0 0
SMALL
NO_CHARGES


@<TRIPOS>ATOM
1    C        -7.3292   33.1216   -1.3216  C     
2    C        -7.3172   33.7917   -2.5698  C     
3    C        -6.3737   34.7949   -2.8453  C     
4    C        -5.4245   35.1664   -1.8711  C     
5    C        -5.4128   34.4789   -0.6410  C     
6    C        -6.3502   33.4622   -0.3387  C     
7    N        -4.4753   36.1319   -2.0412  N     
8    C        -4.5610   37.3049   -2.6587  C     
9    C        -3.5009   38.1485   -2.5705  C     
10   O        -5.5913   37.7003   -3.1896  O     
11   C        -6.2588   32.8334    0.9355  C     
12   O        -6.3876   31.4905    1.0576  O     
13   O        -5.9981   33.5801    2.0464  O     
14   C        -5.8865   33.1205    3.3951  C     
15   C        -8.3859   32.1968   -1.0687  C     
16   C        -9.2309   32.4294    0.0445  C     
17   C       -10.2607   31.5309    0.3721  C     
18   C       -10.4774   30.3917   -0.4209  C     
19   C        -9.6673   30.1596   -1.5443  C     
20   C        -8.6267   31.0536   -1.8777  C     
21   C        -3.1193   38.6908   -1.3869  C     
22   C        -1.8561   39.4023   -1.1607  C     
23   C        -2.0463   40.9266   -1.0218  C     
24   O        -3.9466   38.5708   -0.3379  O     
25   C        -2.8266   38.3030   -3.6482  C     
26   N        -2.2194   38.4377   -4.6124  N     
27   Cl       -7.6993   30.6781   -3.2509  Cl    
28   H        -8.0160   33.5728   -3.2865  H     
29   H        -6.3835   35.2451   -3.7639  H     
30   H        -4.7003   34.7335    0.0514  H     
31   H        -3.6524   35.9856   -1.5485  H     
32   H        -6.8326   32.6864    3.7256  H     
33   H        -5.6411   33.9688    4.0373  H     
34   H        -5.0946   32.3741    3.4769  H     
35   H        -9.1009   33.2571    0.6323  H     
36   H       -10.8460   31.7023    1.1933  H     
37   H       -11.2284   29.7389   -0.1844  H     
38   H        -9.8334   29.3235   -2.1107  H     
39   H        -1.3758   39.0426   -0.2491  H     
40   H        -1.1534   39.1941   -1.9701  H     
41   H        -2.5156   41.3412   -1.9177  H     
42   H        -1.0733   41.4009   -0.8805  H     
43   H        -2.6689   41.1535   -0.1529  H     
44   H        -3.5252   39.0180    0.4232  H     
@<TRIPOS>BOND
     1    1    2 2
     2    1    6 1
     3    1   15 1
     4    2    3 1
     5    3    4 2
     6    4    5 1
     7    4    7 1
     8    5    6 2
     9    6   11 1
    10    7    8 am
    11    8    9 1
    12    8   10 2
    13    9   21 2
    14    9   25 1
    15   11   12 2
    16   11   13 1
    17   13   14 1
    18   15   16 2
    19   15   20 1
    20   16   17 1
    21   17   18 2
    22   18   19 1
    23   19   20 2
    24   20   27 1
    25   21   22 1
    26   21   24 1
    27   22   23 1
    28   25   26 3
    29    2   28 1
    30    3   29 1
    31    5   30 1
    32    7   31 1
    33   14   32 1
    34   14   33 1
    35   14   34 1
    36   16   35 1
    37   17   36 1
    38   18   37 1
    39   19   38 1
    40   22   39 1
    41   22   40 1
    42   23   41 1
    43   23   42 1
    44   23   43 1
    45   24   44 1
@<TRIPOS>PROPERTY_DATA
  Total_Score	| 9.2924
  Crash		| -1.4654
  Polar		| 1.9640
  FragIndex	| 1
  FragRMSD	| 0.447

