@<TRIPOS>MOLECULE
BindingDB_50359706
 48 49 0 0 0
SMALL
NO_CHARGES


@<TRIPOS>ATOM
1    C        -7.1873   33.1461   -1.2045  C     
2    C        -7.1061   33.7224   -2.4934  C     
3    C        -6.1706   34.7286   -2.7836  C     
4    C        -5.3034   35.2265   -1.7840  C     
5    C        -5.3495   34.6083   -0.5121  C     
6    C        -6.2507   33.5550   -0.2093  C     
7    N        -4.4157   36.2712   -1.9262  N     
8    C        -4.5251   37.4236   -2.5929  C     
9    C        -3.5155   38.3759   -2.5832  C     
10   O        -5.5419   37.6469   -3.2638  O     
11   C        -6.1814   32.9367    1.0718  C     
12   O        -6.3542   31.6023    1.2039  O     
13   O        -5.8857   33.6612    2.1870  O     
14   C        -5.8173   33.1696    3.5282  C     
15   C        -8.2803   32.2631   -0.9441  C     
16   C        -9.2369   32.6060    0.0403  C     
17   C       -10.3350   31.7722    0.3043  C     
18   C       -10.5142   30.5978   -0.4360  C     
19   C        -9.6048   30.2547   -1.4537  C     
20   C        -8.4756   31.0737   -1.6869  C     
21   C        -3.2714   39.2057   -1.5369  C     
22   C        -2.3126   40.3279   -1.5159  C     
23   C        -0.8202   39.9721   -1.2623  C     
24   O        -4.0413   39.0776   -0.4522  O     
25   C        -2.8286   38.4784   -3.6609  C     
26   N        -2.2333   38.5618   -4.6425  N     
27   O        -9.8271   29.1047   -2.1602  O     
28   C       -10.9550   29.1977   -3.0503  C     
29   H        -7.7554   33.4399   -3.2313  H     
30   H        -6.1354   35.0797   -3.7406  H     
31   H        -4.6979   34.9307    0.2119  H     
32   H        -3.5944   36.1726   -1.4115  H     
33   H        -6.8063   32.8486    3.8649  H     
34   H        -5.4775   33.9751    4.1836  H     
35   H        -5.1180   32.3326    3.5984  H     
36   H        -9.1483   33.4748    0.5651  H     
37   H       -11.0087   32.0200    1.0272  H     
38   H       -11.3186   29.9966   -0.2529  H     
39   H        -7.8070   30.8052   -2.4099  H     
40   H        -2.3801   40.8579   -2.4693  H     
41   H        -2.5981   41.0460   -0.7429  H     
42   H        -0.7175   39.1442   -0.5409  H     
43   H        -0.2970   40.8465   -0.8728  H     
44   H        -0.3225   39.6921   -2.1954  H     
45   H        -3.4930   39.1613    0.3512  H     
46   H       -11.8646   29.5430   -2.5480  H     
47   H       -11.1460   28.2099   -3.4683  H     
48   H       -10.7233   29.8725   -3.8774  H     
@<TRIPOS>BOND
     1    1    2 2
     2    1    6 1
     3    1   15 1
     4    2    3 1
     5    3    4 2
     6    4    5 1
     7    4    7 1
     8    5    6 2
     9    6   11 1
    10    7    8 am
    11    8    9 1
    12    8   10 2
    13    9   21 2
    14    9   25 1
    15   11   12 2
    16   11   13 1
    17   13   14 1
    18   15   16 2
    19   15   20 1
    20   16   17 1
    21   17   18 2
    22   18   19 1
    23   19   20 2
    24   19   27 1
    25   21   22 1
    26   21   24 1
    27   22   23 1
    28   25   26 3
    29   27   28 1
    30    2   29 1
    31    3   30 1
    32    5   31 1
    33    7   32 1
    34   14   33 1
    35   14   34 1
    36   14   35 1
    37   16   36 1
    38   17   37 1
    39   18   38 1
    40   20   39 1
    41   22   40 1
    42   22   41 1
    43   23   42 1
    44   23   43 1
    45   23   44 1
    46   24   45 1
    47   28   46 1
    48   28   47 1
    49   28   48 1
@<TRIPOS>PROPERTY_DATA
  Total_Score	| 9.5440
  Crash		| -1.2284
  Polar		| 2.0243
  FragIndex	| 1
  FragRMSD	| 0.124

