@<TRIPOS>MOLECULE
BindingDB_50359703
 48 49 0 0 0
SMALL
NO_CHARGES


@<TRIPOS>ATOM
1    C        -7.2325   33.2921   -1.2336  C     
2    C        -7.1898   33.9531   -2.4888  C     
3    C        -6.2557   34.9818   -2.7227  C     
4    C        -5.3467   35.3773   -1.7147  C     
5    C        -5.3571   34.6827   -0.4858  C     
6    C        -6.2809   33.6417   -0.2198  C     
7    N        -4.4174   36.3786   -1.8572  N     
8    C        -4.4846   37.4873   -2.5910  C     
9    C        -3.4795   38.3944   -2.5088  C     
10   O        -5.4755   37.7861   -3.2549  O     
11   C        -6.2393   33.0132    1.0531  C     
12   O        -6.6088   31.7139    1.1836  O     
13   O        -5.8529   33.7267    2.1438  O     
14   C        -5.8288   33.2541    3.4941  C     
15   C        -8.2849   32.3495   -1.0168  C     
16   C        -9.1130   32.4711    0.1299  C     
17   C       -10.1156   31.5238    0.4063  C     
18   C       -10.2971   30.4212   -0.4552  C     
19   C        -9.4937   30.2885   -1.6067  C     
20   C        -8.5153   31.2640   -1.9112  C     
21   C        -3.2724   39.1484   -1.4002  C     
22   C        -2.2473   40.1865   -1.2551  C     
23   C        -0.8078   39.6305   -1.1177  C     
24   O        -4.1041   38.9863   -0.3692  O     
25   C        -2.7345   38.4879   -3.5509  C     
26   N        -2.0744   38.5569   -4.4880  N     
27   F       -11.2196   29.5391   -0.1999  F     
28   O        -7.7597   31.1340   -3.0488  O     
29   C        -8.5016   31.2604   -4.2727  C     
30   H        -7.8685   33.7250   -3.2236  H     
31   H        -6.2431   35.4387   -3.6375  H     
32   H        -4.6705   34.9516    0.2333  H     
33   H        -3.6437   36.3119   -1.2722  H     
34   H        -6.8303   32.9538    3.8092  H     
35   H        -5.4801   34.0672    4.1293  H     
36   H        -5.1535   32.4038    3.5870  H     
37   H        -8.9960   33.2668    0.7657  H     
38   H       -10.6963   31.6185    1.2414  H     
39   H        -9.6241   29.4780   -2.2173  H     
40   H        -2.2929   40.8736   -2.1085  H     
41   H        -2.4476   40.7906   -0.3638  H     
42   H        -0.7613   38.8956   -0.3085  H     
43   H        -0.1168   40.4487   -0.8867  H     
44   H        -0.4899   39.1654   -2.0523  H     
45   H        -3.5332   38.9872    0.4294  H     
46   H        -9.0854   30.3492   -4.4488  H     
47   H        -7.7878   31.3842   -5.0895  H     
48   H        -9.1565   32.1406   -4.2534  H     
@<TRIPOS>BOND
     1    1    2 2
     2    1    6 1
     3    1   15 1
     4    2    3 1
     5    3    4 2
     6    4    5 1
     7    4    7 1
     8    5    6 2
     9    6   11 1
    10    7    8 am
    11    8    9 1
    12    8   10 2
    13    9   21 2
    14    9   25 1
    15   11   12 2
    16   11   13 1
    17   13   14 1
    18   15   16 2
    19   15   20 1
    20   16   17 1
    21   17   18 2
    22   18   19 1
    23   18   27 1
    24   19   20 2
    25   20   28 1
    26   21   22 1
    27   21   24 1
    28   22   23 1
    29   25   26 3
    30   28   29 1
    31    2   30 1
    32    3   31 1
    33    5   32 1
    34    7   33 1
    35   14   34 1
    36   14   35 1
    37   14   36 1
    38   16   37 1
    39   17   38 1
    40   19   39 1
    41   22   40 1
    42   22   41 1
    43   23   42 1
    44   23   43 1
    45   23   44 1
    46   24   45 1
    47   29   46 1
    48   29   47 1
    49   29   48 1
@<TRIPOS>PROPERTY_DATA
  Total_Score	| 8.8549
  Crash		| -1.8869
  Polar		| 2.1029
  FragIndex	| 1
  FragRMSD	| 0.143

