@<TRIPOS>MOLECULE
BindingDB_17947
 77 77 0 0 0
SMALL
NO_CHARGES


@<TRIPOS>ATOM
1    C        12.9807   48.8023   72.6547  C     
2    C        14.1673   49.0181   73.3945  C     
3    C        14.3886   50.2352   74.0566  C     
4    C        13.4030   51.2353   74.0298  C     
5    C        12.1857   51.0057   73.3644  C     
6    C        11.9558   49.7933   72.6659  C     
7    O        12.7529   47.5472   72.1409  O     
8    C        13.3809   47.2072   70.8847  C     
9    C        14.8873   46.8664   70.9807  C     
10   C        15.3909   45.8219   69.9354  C     
11   O        15.8524   44.5893   70.5223  O     
12   C        14.8330   43.6579   70.9194  C     
13   C        10.7176   49.5819   72.0736  C     
14   O         9.7092   49.7423   72.7526  O     
15   N        10.6288   49.3076   70.7720  N     
16   C         9.4263   49.1116   70.0016  C     
17   C         9.4715   47.8139   69.1326  C     
18   C         8.1045   47.4965   68.4142  C     
19   C        10.6211   47.8671   68.0907  C     
20   C         7.3260   46.2589   68.9675  C     
21   C         5.9877   45.9838   68.2065  C     
22   C         4.9735   45.1318   69.0353  C     
23   C         3.6100   44.8445   68.3239  C     
24   C         2.6723   44.0211   69.2557  C     
25   C         2.9396   46.0616   67.8692  C     
26   O         2.7344   46.9479   68.6905  O     
27   N         2.5717   46.1935   66.5979  N     
28   C         1.8548   47.2933   66.0285  C     
29   C         2.7781   48.2355   65.2097  C     
30   C         2.4387   49.7328   65.4321  C     
31   C         2.9073   50.6692   64.3004  C     
32   O         6.2393   45.3289   66.9597  O     
33   N         8.1633   45.0423   68.9193  N     
34   H        14.8648   48.2813   73.4671  H     
35   H        15.2453   50.3787   74.5936  H     
36   H        13.5622   52.1230   74.5184  H     
37   H        11.4613   51.7274   73.4120  H     
38   H        12.8317   46.3415   70.5123  H     
39   H        13.2442   48.0118   70.1648  H     
40   H        15.4379   47.7932   70.8274  H     
41   H        15.1123   46.5045   71.9846  H     
42   H        14.6521   45.6261   69.1583  H     
43   H        16.2561   46.2392   69.4255  H     
44   H        14.1625   44.0896   71.6637  H     
45   H        15.3093   42.7845   71.3595  H     
46   H        14.2524   43.3291   70.0583  H     
47   H        11.4610   49.3004   70.2736  H     
48   H         8.5439   49.0712   70.6506  H     
49   H         9.3053   49.9794   69.3404  H     
50   H         9.7061   47.0068   69.8239  H     
51   H         7.4408   48.3644   68.4823  H     
52   H         8.2592   47.3323   67.3454  H     
53   H        10.4291   48.6503   67.3499  H     
54   H        10.6991   46.9101   67.5686  H     
55   H        11.5819   48.0692   68.5600  H     
56   H         7.1013   46.4621   70.0188  H     
57   H         5.5109   46.9409   67.9910  H     
58   H         5.4397   44.1695   69.2724  H     
59   H         4.7833   45.6423   69.9867  H     
60   H         3.8251   44.2002   67.4638  H     
61   H         3.1595   43.0908   69.5608  H     
62   H         1.7459   43.7628   68.7367  H     
63   H         2.4211   44.5893   70.1553  H     
64   H         2.8100   45.4728   65.9870  H     
65   H         1.0912   46.8821   65.3643  H     
66   H         1.3203   47.8645   66.7979  H     
67   H         3.8205   48.0777   65.5038  H     
68   H         2.6854   47.9904   64.1462  H     
69   H         1.3562   49.8553   65.5570  H     
70   H         2.9213   50.0557   66.3622  H     
71   H         3.9659   50.5109   64.0762  H     
72   H         2.7698   51.7046   64.6192  H     
73   H         2.3194   50.4951   63.3969  H     
74   H         6.9606   45.8297   66.5229  H     
75   H         8.4669   44.8687   67.9610  H     
76   H         7.6400   44.2333   69.2610  H     
77   H         8.9856   45.1620   69.5035  H     
@<TRIPOS>BOND
     1    1    2 2
     2    1    6 1
     3    1    7 1
     4    2    3 1
     5    3    4 2
     6    4    5 1
     7    5    6 2
     8    6   13 1
     9    7    8 1
    10    8    9 1
    11    9   10 1
    12   10   11 1
    13   11   12 1
    14   13   14 2
    15   13   15 am
    16   15   16 1
    17   16   17 1
    18   17   18 1
    19   17   19 1
    20   18   20 1
    21   20   21 1
    22   20   33 1
    23   21   22 1
    24   21   32 1
    25   22   23 1
    26   23   24 1
    27   23   25 1
    28   25   26 2
    29   25   27 am
    30   27   28 1
    31   28   29 1
    32   29   30 1
    33   30   31 1
    34    2   34 1
    35    3   35 1
    36    4   36 1
    37    5   37 1
    38    8   38 1
    39    8   39 1
    40    9   40 1
    41    9   41 1
    42   10   42 1
    43   10   43 1
    44   12   44 1
    45   12   45 1
    46   12   46 1
    47   15   47 1
    48   16   48 1
    49   16   49 1
    50   17   50 1
    51   18   51 1
    52   18   52 1
    53   19   53 1
    54   19   54 1
    55   19   55 1
    56   20   56 1
    57   21   57 1
    58   22   58 1
    59   22   59 1
    60   23   60 1
    61   24   61 1
    62   24   62 1
    63   24   63 1
    64   27   64 1
    65   28   65 1
    66   28   66 1
    67   29   67 1
    68   29   68 1
    69   30   69 1
    70   30   70 1
    71   31   71 1
    72   31   72 1
    73   31   73 1
    74   32   74 1
    75   33   75 1
    76   33   76 1
    77   33   77 1
@<TRIPOS>PROPERTY_DATA
  Total_Score	| 15.5390
  Crash		| -1.7672
  Polar		| 9.4415
  FragIndex	| 1
  FragRMSD	| 0.766

