@<TRIPOS>MOLECULE
BindingDB_50330342
 81 83 0 0 0
SMALL
NO_CHARGES


@<TRIPOS>ATOM
1    C        -0.6631   48.5183   68.3938  C     
2    C        -2.1157   48.1897   67.9577  C     
3    C         0.1391   47.2665   68.8888  C     
4    C        -0.6884   49.6107   69.5075  C     
5    C         0.1560   46.0086   67.9591  C     
6    C         0.8115   46.1658   66.5462  C     
7    O         0.7226   44.9139   68.6689  O     
8    O         1.0769   44.8697   66.0068  O     
9    C         2.0846   47.0708   66.4611  C     
10   N         3.2314   46.3898   67.0127  N     
11   C         2.4460   47.4557   64.9869  C     
12   C         1.6497   48.6543   64.3579  C     
13   C         3.8953   46.7141   68.1159  C     
14   C         5.0165   46.0020   68.5119  C     
15   O         3.4912   47.5846   68.8681  O     
16   C         2.2917   50.0454   64.6623  C     
17   C         3.5753   50.3310   63.8386  C     
18   C         3.3616   50.1371   62.3139  C     
19   C         2.7257   48.7590   62.0039  C     
20   C         1.4311   48.5146   62.8193  C     
21   C         4.9055   45.0272   69.5346  C     
22   C         6.0674   44.4647   70.0965  C     
23   C         7.3276   44.7545   69.5665  C     
24   C         7.4364   45.6426   68.4841  C     
25   C         6.3036   46.3243   67.9935  C     
26   O         3.6951   44.5882   69.9978  O     
27   C         3.3389   43.2931   69.4744  C     
28   O         6.4562   47.3264   67.0508  O     
29   C         7.6593   48.1239   67.0572  C     
30   C         8.0221   48.7305   68.4366  C     
31   C         8.8410   50.0491   68.3328  C     
32   C         9.2020   50.5788   69.6743  C     
33   C        10.3756   50.1552   70.3446  C     
34   C        10.6681   50.6207   71.6362  C     
35   C         9.7767   51.5099   72.2580  C     
36   N         8.6568   51.9042   71.6037  N     
37   C         8.3438   51.4685   70.3583  C     
38   H        -0.1261   48.9367   67.5308  H     
39   H        -2.1342   47.4667   67.1447  H     
40   H        -2.6203   49.0927   67.6107  H     
41   H        -2.6726   47.7838   68.7989  H     
42   H         1.1717   47.5706   69.0650  H     
43   H        -0.2907   46.9478   69.8500  H     
44   H        -1.1579   50.5176   69.1261  H     
45   H         0.3229   49.8559   69.8345  H     
46   H        -1.2576   49.2664   70.3746  H     
47   H        -0.8869   45.7147   67.7813  H     
48   H         0.0522   46.5959   65.9014  H     
49   H         1.6076   45.2160   68.9683  H     
50   H         1.5754   44.3944   66.7119  H     
51   H         1.8858   48.0051   67.0017  H     
52   H         3.5569   45.6107   66.5225  H     
53   H         3.5148   47.6950   64.9559  H     
54   H         2.3240   46.5570   64.3694  H     
55   H         0.6501   48.6681   64.7978  H     
56   H         1.5572   50.8286   64.4446  H     
57   H         2.5282   50.1196   65.7317  H     
58   H         3.9086   51.3537   64.0304  H     
59   H         4.3730   49.6673   64.1555  H     
60   H         2.7135   50.9241   61.9287  H     
61   H         4.3271   50.2099   61.8077  H     
62   H         2.5009   48.7101   60.9325  H     
63   H         3.4476   47.9673   62.2317  H     
64   H         1.0375   47.5205   62.5854  H     
65   H         0.6800   49.2416   62.4985  H     
66   H         5.9921   43.7932   70.8640  H     
67   H         8.1642   44.3042   69.9545  H     
68   H         8.3731   45.8478   68.1129  H     
69   H         3.2508   43.3252   68.3885  H     
70   H         2.3733   43.0006   69.8836  H     
71   H         4.0656   42.5329   69.7622  H     
72   H         8.5020   47.5232   66.7099  H     
73   H         7.5264   48.9283   66.3233  H     
74   H         7.1070   48.9158   69.0045  H     
75   H         8.6188   47.9983   68.9890  H     
76   H         9.7531   49.8667   67.7484  H     
77   H         8.2558   50.7907   67.7797  H     
78   H        11.0171   49.4925   69.8976  H     
79   H        11.5193   50.3209   72.1200  H     
80   H         9.9682   51.8561   73.1955  H     
81   H         7.4744   51.7892   69.9264  H     
@<TRIPOS>BOND
     1    1    2 1
     2    1    3 1
     3    1    4 1
     4    3    5 1
     5    5    6 1
     6    5    7 1
     7    6    8 1
     8    6    9 1
     9    9   10 1
    10    9   11 1
    11   10   13 am
    12   11   12 1
    13   12   16 1
    14   12   20 1
    15   13   14 1
    16   13   15 2
    17   14   21 2
    18   14   25 1
    19   16   17 1
    20   17   18 1
    21   18   19 1
    22   19   20 1
    23   21   22 1
    24   21   26 1
    25   22   23 2
    26   23   24 1
    27   24   25 2
    28   25   28 1
    29   26   27 1
    30   28   29 1
    31   29   30 1
    32   30   31 1
    33   31   32 1
    34   32   33 2
    35   32   37 1
    36   33   34 1
    37   34   35 2
    38   35   36 1
    39   36   37 2
    40    1   38 1
    41    2   39 1
    42    2   40 1
    43    2   41 1
    44    3   42 1
    45    3   43 1
    46    4   44 1
    47    4   45 1
    48    4   46 1
    49    5   47 1
    50    6   48 1
    51    7   49 1
    52    8   50 1
    53    9   51 1
    54   10   52 1
    55   11   53 1
    56   11   54 1
    57   12   55 1
    58   16   56 1
    59   16   57 1
    60   17   58 1
    61   17   59 1
    62   18   60 1
    63   18   61 1
    64   19   62 1
    65   19   63 1
    66   20   64 1
    67   20   65 1
    68   22   66 1
    69   23   67 1
    70   24   68 1
    71   27   69 1
    72   27   70 1
    73   27   71 1
    74   29   72 1
    75   29   73 1
    76   30   74 1
    77   30   75 1
    78   31   76 1
    79   31   77 1
    80   33   78 1
    81   34   79 1
    82   35   80 1
    83   37   81 1
@<TRIPOS>PROPERTY_DATA
  Total_Score	| 4.0241
  Crash		| -7.4132
  Polar		| 1.0510
  FragIndex	| 1
  FragRMSD	| 1.355

