@<TRIPOS>MOLECULE
BindingDB_17948
 83 83 0 0 0
SMALL
NO_CHARGES


@<TRIPOS>ATOM
1    C        13.1398   48.7033   73.1462  C     
2    C        14.2655   49.1731   73.8736  C     
3    C        14.3161   50.4875   74.3626  C     
4    C        13.2397   51.3538   74.1365  C     
5    C        12.0934   50.8796   73.4804  C     
6    C        12.0005   49.5477   72.9845  C     
7    O        13.1451   47.4150   72.6434  O     
8    C        14.3845   47.0127   72.0023  C     
9    C        14.1908   45.8207   71.0299  C     
10   C        15.3646   45.6769   70.0083  C     
11   O        16.0565   44.4128   70.0776  O     
12   C        15.3847   43.3053   69.4566  C     
13   C        10.7771   49.1093   72.4403  C     
14   O         9.7520   49.6765   72.8085  O     
15   N        10.6601   48.1355   71.5382  N     
16   C         9.4443   47.7097   70.8873  C     
17   C         9.4566   47.9007   69.3293  C     
18   C         8.0519   47.5785   68.6929  C     
19   C         7.2989   46.2656   69.0913  C     
20   C         5.9898   46.0370   68.2573  C     
21   C         4.9266   45.1803   69.0163  C     
22   C         3.5992   44.8986   68.2406  C     
23   C         2.5985   44.1127   69.1312  C     
24   C         2.9677   46.1090   67.7173  C     
25   O         2.6834   47.0155   68.4930  O     
26   N         2.6819   46.2007   66.4214  N     
27   C         2.0069   47.2785   65.7650  C     
28   C         2.8068   48.6038   65.8095  C     
29   C         2.0796   49.7720   65.0939  C     
30   C         2.8960   51.0867   65.1229  C     
31   O         6.2881   45.4285   66.9942  O     
32   N         8.1769   45.0905   68.9704  N     
33   C        10.0677   49.3075   68.8946  C     
34   C        11.4843   49.1489   68.2681  C     
35   C         9.1915   50.2236   67.9901  C     
36   H        15.0592   48.5560   74.0592  H     
37   H        15.1350   50.8125   74.8775  H     
38   H        13.2763   52.3161   74.4797  H     
39   H        11.3189   51.5388   73.3575  H     
40   H        14.8221   47.8451   71.4302  H     
41   H        15.1048   46.6922   72.7681  H     
42   H        14.0939   44.8994   71.6182  H     
43   H        13.2545   45.9640   70.4812  H     
44   H        15.0073   45.8657   68.9956  H     
45   H        16.1314   46.4312   70.2052  H     
46   H        14.4057   43.1306   69.9079  H     
47   H        15.9911   42.4079   69.5911  H     
48   H        15.2702   43.4819   68.3840  H     
49   H        11.4749   47.6862   71.2654  H     
50   H         9.3306   46.6450   71.1281  H     
51   H         8.5683   48.2286   71.2883  H     
52   H        10.1137   47.1056   68.9532  H     
53   H         7.3684   48.3941   68.9444  H     
54   H         8.1706   47.5738   67.6056  H     
55   H         7.0190   46.3532   70.1466  H     
56   H         5.5341   47.0106   68.0516  H     
57   H         5.3822   44.2184   69.2719  H     
58   H         4.6890   45.6859   69.9560  H     
59   H         3.8572   44.2355   67.4071  H     
60   H         3.0500   43.1822   69.4776  H     
61   H         1.6996   43.8628   68.5674  H     
62   H         2.3092   44.7018   70.0048  H     
63   H         2.9179   45.4436   65.8593  H     
64   H         1.8692   46.9955   64.7198  H     
65   H         1.0145   47.4229   66.2057  H     
66   H         2.9705   48.8887   66.8520  H     
67   H         3.7809   48.4492   65.3423  H     
68   H         1.8910   49.5045   64.0497  H     
69   H         1.1149   49.9534   65.5780  H     
70   H         3.1535   51.3615   66.1509  H     
71   H         2.3051   51.8947   64.6839  H     
72   H         3.8153   50.9751   64.5416  H     
73   H         6.9931   45.9743   66.5823  H     
74   H         8.4878   44.9938   68.0014  H     
75   H         7.6729   44.2465   69.2518  H     
76   H         8.9885   45.2082   69.5756  H     
77   H        10.2179   49.9117   69.7930  H     
78   H        12.1501   48.6242   68.9583  H     
79   H        11.9254   50.1269   68.0585  H     
80   H        11.4284   48.5834   67.3338  H     
81   H         9.0059   49.7534   67.0247  H     
82   H         9.7004   51.1770   67.8236  H     
83   H         8.2407   50.4482   68.4736  H     
@<TRIPOS>BOND
     1    1    2 2
     2    1    6 1
     3    1    7 1
     4    2    3 1
     5    3    4 2
     6    4    5 1
     7    5    6 2
     8    6   13 1
     9    7    8 1
    10    8    9 1
    11    9   10 1
    12   10   11 1
    13   11   12 1
    14   13   14 2
    15   13   15 am
    16   15   16 1
    17   16   17 1
    18   17   18 1
    19   17   33 1
    20   18   19 1
    21   19   20 1
    22   19   32 1
    23   20   21 1
    24   20   31 1
    25   21   22 1
    26   22   23 1
    27   22   24 1
    28   24   25 2
    29   24   26 am
    30   26   27 1
    31   27   28 1
    32   28   29 1
    33   29   30 1
    34   33   34 1
    35   33   35 1
    36    2   36 1
    37    3   37 1
    38    4   38 1
    39    5   39 1
    40    8   40 1
    41    8   41 1
    42    9   42 1
    43    9   43 1
    44   10   44 1
    45   10   45 1
    46   12   46 1
    47   12   47 1
    48   12   48 1
    49   15   49 1
    50   16   50 1
    51   16   51 1
    52   17   52 1
    53   18   53 1
    54   18   54 1
    55   19   55 1
    56   20   56 1
    57   21   57 1
    58   21   58 1
    59   22   59 1
    60   23   60 1
    61   23   61 1
    62   23   62 1
    63   26   63 1
    64   27   64 1
    65   27   65 1
    66   28   66 1
    67   28   67 1
    68   29   68 1
    69   29   69 1
    70   30   70 1
    71   30   71 1
    72   30   72 1
    73   31   73 1
    74   32   74 1
    75   32   75 1
    76   32   76 1
    77   33   77 1
    78   34   78 1
    79   34   79 1
    80   34   80 1
    81   35   81 1
    82   35   82 1
    83   35   83 1
@<TRIPOS>PROPERTY_DATA
  Total_Score	| 17.4591
  Crash		| -2.0266
  Polar		| 9.2973
  FragIndex	| 1
  FragRMSD	| 0.447

