@<TRIPOS>MOLECULE
BindingDB_50345193
 83 83 0 0 0
SMALL
NO_CHARGES


@<TRIPOS>ATOM
1    C        14.0120   49.0215   73.4926  C     
2    C        14.3655   50.2262   74.1286  C     
3    C        13.4319   51.2671   74.2700  C     
4    C        12.1285   51.1121   73.7629  C     
5    C        11.7413   49.9239   73.0947  C     
6    C        12.6979   48.8835   72.9944  C     
7    O        14.9860   48.0525   73.4121  O     
8    C        14.8148   46.8628   72.6124  C     
9    C        14.7829   47.1278   71.0831  C     
10   C        14.7501   45.8175   70.2561  C     
11   O        15.6551   44.8381   70.8112  O     
12   C        15.0458   43.5953   71.1959  C     
13   C        10.4709   49.7749   72.5395  C     
14   N        10.2256   48.8276   71.6450  N     
15   C         9.0369   48.6121   70.8784  C     
16   C         9.3446   47.9242   69.5010  C     
17   C         8.0054   47.6561   68.7099  C     
18   C         7.2112   46.3927   69.1672  C     
19   C         5.7323   46.3999   68.6569  C     
20   C         4.9999   45.0207   68.6811  C     
21   C         3.4336   45.0827   68.7003  C     
22   C         2.8637   46.1679   67.8987  C     
23   N         2.7361   46.0617   66.5770  N     
24   C         2.1574   47.0276   65.6908  C     
25   O         9.5580   50.5327   72.8809  O     
26   C        10.4613   48.6671   68.6715  C     
27   C        10.8567   47.8970   67.3766  C     
28   C        10.1401   50.1667   68.3596  C     
29   N         7.9502   45.1787   68.7702  N     
30   O         5.0011   47.3650   69.4144  O     
31   C         2.8146   43.7141   68.3084  C     
32   O         2.4971   47.1865   68.4785  O     
33   C         2.8790   48.4022   65.6926  C     
34   C         2.2206   49.4860   64.7925  C     
35   C         2.9017   49.6725   63.4165  C     
36   H        15.3078   50.3545   74.5029  H     
37   H        13.6880   52.1321   74.7557  H     
38   H        11.4623   51.8796   73.8837  H     
39   H        12.4417   47.9970   72.5605  H     
40   H        15.6755   46.2233   72.8191  H     
41   H        13.9295   46.3086   72.9348  H     
42   H        13.8976   47.7166   70.8385  H     
43   H        15.6610   47.7088   70.7915  H     
44   H        13.7113   45.4649   70.2048  H     
45   H        15.0743   46.0374   69.2361  H     
46   H        14.3256   43.7495   72.0024  H     
47   H        15.8239   42.9326   71.5578  H     
48   H        14.5485   43.1191   70.3483  H     
49   H        10.9705   48.2513   71.4153  H     
50   H         8.3534   47.9897   71.4645  H     
51   H         8.5458   49.5742   70.6973  H     
52   H         9.7910   46.9552   69.7584  H     
53   H         7.3738   48.5455   68.7986  H     
54   H         8.2263   47.5454   67.6403  H     
55   H         7.1837   46.3837   70.2643  H     
56   H         5.7244   46.7477   67.6211  H     
57   H         5.3193   44.4433   67.8091  H     
58   H         5.3186   44.4683   69.5694  H     
59   H         3.1549   45.2467   69.7488  H     
60   H         3.0311   45.2318   66.1720  H     
61   H         2.2195   46.6062   64.6866  H     
62   H         1.1004   47.1558   65.9352  H     
63   H        11.3856   48.6788   69.2673  H     
64   H        11.1036   46.8525   67.6225  H     
65   H        11.7320   48.3555   66.9025  H     
66   H        10.0220   47.9089   66.6643  H     
67   H         9.2164   50.2461   67.7775  H     
68   H        10.9625   50.6149   67.7927  H     
69   H        10.0335   50.7341   69.2883  H     
70   H         8.1052   45.1517   67.7532  H     
71   H         7.4448   44.3372   69.0663  H     
72   H         8.8608   45.1885   69.2384  H     
73   H         5.0680   47.0902   70.3541  H     
74   H         3.0673   43.4483   67.2805  H     
75   H         1.7260   43.7519   68.4034  H     
76   H         3.1859   42.9310   68.9706  H     
77   H         2.8962   48.7918   66.7122  H     
78   H         3.9137   48.2546   65.3828  H     
79   H         1.1638   49.2456   64.6370  H     
80   H         2.2626   50.4478   65.3148  H     
81   H         3.9336   50.0047   63.5465  H     
82   H         2.3672   50.4295   62.8397  H     
83   H         2.8937   48.7381   62.8544  H     
@<TRIPOS>BOND
     1    1    2 2
     2    1    6 1
     3    1    7 1
     4    2    3 1
     5    3    4 2
     6    4    5 1
     7    5    6 2
     8    5   13 1
     9    7    8 1
    10    8    9 1
    11    9   10 1
    12   10   11 1
    13   11   12 1
    14   13   14 am
    15   13   25 2
    16   14   15 1
    17   15   16 1
    18   16   17 1
    19   16   26 1
    20   17   18 1
    21   18   19 1
    22   18   29 1
    23   19   20 1
    24   19   30 1
    25   20   21 1
    26   21   22 1
    27   21   31 1
    28   22   23 am
    29   22   32 2
    30   23   24 1
    31   24   33 1
    32   26   27 1
    33   26   28 1
    34   33   34 1
    35   34   35 1
    36    2   36 1
    37    3   37 1
    38    4   38 1
    39    6   39 1
    40    8   40 1
    41    8   41 1
    42    9   42 1
    43    9   43 1
    44   10   44 1
    45   10   45 1
    46   12   46 1
    47   12   47 1
    48   12   48 1
    49   14   49 1
    50   15   50 1
    51   15   51 1
    52   16   52 1
    53   17   53 1
    54   17   54 1
    55   18   55 1
    56   19   56 1
    57   20   57 1
    58   20   58 1
    59   21   59 1
    60   23   60 1
    61   24   61 1
    62   24   62 1
    63   26   63 1
    64   27   64 1
    65   27   65 1
    66   27   66 1
    67   28   67 1
    68   28   68 1
    69   28   69 1
    70   29   70 1
    71   29   71 1
    72   29   72 1
    73   30   73 1
    74   31   74 1
    75   31   75 1
    76   31   76 1
    77   33   77 1
    78   33   78 1
    79   34   79 1
    80   34   80 1
    81   35   81 1
    82   35   82 1
    83   35   83 1
@<TRIPOS>PROPERTY_DATA
  Total_Score	| 14.6433
  Crash		| -2.7557
  Polar		| 8.7311
  FragIndex	| 1
  FragRMSD	| 0.940

