@<TRIPOS>MOLECULE
BindingDB_50330360
 106 107 0 0 0
SMALL
NO_CHARGES


@<TRIPOS>ATOM
1    C         9.4688   48.0428   71.0144  C     
2    C         9.5984   48.0681   69.4543  C     
3    C         8.2440   47.7113   68.7354  C     
4    C         7.4529   46.4418   69.1612  C     
5    C         6.1345   46.2469   68.3387  C     
6    O         6.3702   45.5163   67.1326  O     
7    N         8.2847   45.2279   69.0801  N     
8    C         5.0709   45.5193   69.2006  C     
9    C         3.8585   44.8665   68.4553  C     
10   C         2.9473   45.8804   67.9162  C     
11   C         3.0491   43.8491   69.3538  C     
12   O         2.5574   46.7758   68.6584  O     
13   N         2.3820   45.6974   66.7200  N     
14   C         1.1090   46.2493   66.3706  C     
15   C         0.7574   46.1725   64.8525  C     
16   C         0.9375   47.4443   63.9653  C     
17   C        10.2544   49.4276   68.9512  C     
18   C        11.5866   49.1640   68.1774  C     
19   C         9.3885   50.4231   68.1194  C     
20   N        10.6704   48.4693   71.6778  N     
21   C        10.8051   49.4511   72.5687  C     
22   C        12.0296   49.8060   73.1632  C     
23   O         9.7998   50.0882   72.8671  O     
24   C        13.1535   48.9301   73.2620  C     
25   C        14.3116   49.3324   73.9702  C     
26   C        14.4114   50.6181   74.5193  C     
27   C        13.3465   51.5106   74.3868  C     
28   C        12.1700   51.1070   73.7341  C     
29   O        13.1580   47.6450   72.7689  O     
30   C        13.9939   47.4348   71.6024  C     
31   C        14.8324   46.1394   71.7462  C     
32   C        14.0317   44.8309   71.5066  C     
33   C        14.9366   43.6409   71.0791  C     
34   O        16.0323   43.9942   70.1976  O     
35   C        15.6707   44.4486   68.8833  C     
36   C         1.9833   43.0799   68.5218  C     
37   C         3.9294   42.8356   70.1512  C     
38   C         0.6379   48.7731   64.7284  C     
39   C         0.9377   50.0004   63.8437  C     
40   N         2.2961   49.9124   63.3522  N     
41   C         2.5175   48.7972   62.4452  C     
42   C         2.3116   47.4742   63.2366  C     
43   C         3.3157   50.6411   63.8375  C     
44   O         4.3769   50.6775   63.2282  O     
45   C         3.2894   51.3197   65.1222  C     
46   H         8.5953   48.6310   71.3034  H     
47   H         9.3097   47.0233   71.3584  H     
48   H        10.2678   47.2437   69.2035  H     
49   H         7.5564   48.5559   68.8437  H     
50   H         8.4626   47.6114   67.6635  H     
51   H         7.1820   46.5789   70.2074  H     
52   H         5.7292   47.2208   68.0531  H     
53   H         7.0963   45.9682   66.6533  H     
54   H         8.5983   45.0848   68.1122  H     
55   H         7.7444   44.4085   69.3784  H     
56   H         9.1040   45.3257   69.6855  H     
57   H         5.6034   44.7372   69.7430  H     
58   H         4.6787   46.2217   69.9446  H     
59   H         4.2928   44.3012   67.6284  H     
60   H         2.5034   44.4199   70.1124  H     
61   H         2.7468   45.0040   66.1438  H     
62   H         0.3520   45.6515   66.8976  H     
63   H         1.0132   47.2602   66.7549  H     
64   H         1.3310   45.3547   64.4049  H     
65   H        -0.2944   45.8843   64.7756  H     
66   H         0.1766   47.3680   63.1777  H     
67   H        10.5305   50.0253   69.8327  H     
68   H        12.2831   48.5948   68.7940  H     
69   H        12.0656   50.1047   67.8953  H     
70   H        11.3875   48.5891   67.2633  H     
71   H         8.9951   49.9305   67.2212  H     
72   H         9.9837   51.2906   67.8067  H     
73   H         8.5617   50.8255   68.7112  H     
74   H        11.4628   47.9757   71.4473  H     
75   H        15.1011   48.6857   74.0780  H     
76   H        15.2652   50.9032   75.0038  H     
77   H        13.4120   52.4584   74.7740  H     
78   H        11.4118   51.7885   73.6705  H     
79   H        13.3603   47.3724   70.7104  H     
80   H        14.7131   48.2430   71.4286  H     
81   H        15.6444   46.1986   71.0201  H     
82   H        15.2839   46.1116   72.7416  H     
83   H        13.5001   44.5616   72.4243  H     
84   H        13.2797   44.9975   70.7308  H     
85   H        15.3851   43.2104   71.9797  H     
86   H        14.3207   42.8555   70.6248  H     
87   H        15.1412   43.6706   68.3368  H     
88   H        16.5832   44.6935   68.3438  H     
89   H        15.0596   45.3514   68.9243  H     
90   H         1.2058   43.7537   68.1656  H     
91   H         1.4948   42.3089   69.1200  H     
92   H         2.4406   42.6002   67.6555  H     
93   H         4.6627   42.3630   69.4966  H     
94   H         3.3212   42.0584   70.6078  H     
95   H         4.4556   43.3393   70.9606  H     
96   H        -0.4119   48.8023   65.0362  H     
97   H         1.2561   48.8709   65.6179  H     
98   H         0.2332   50.0236   63.0087  H     
99   H         0.7480   50.8962   64.4323  H     
100  H         1.8197   48.8442   61.6049  H     
101  H         3.5147   48.7802   62.0069  H     
102  H         3.1138   47.3754   63.9719  H     
103  H         2.3679   46.6247   62.5515  H     
104  H         2.5481   52.1141   65.1277  H     
105  H         4.2493   51.7670   65.3673  H     
106  H         3.0492   50.6081   65.9120  H     
@<TRIPOS>BOND
     1    1    2 1
     2    1   20 1
     3    2    3 1
     4    2   17 1
     5    3    4 1
     6    4    5 1
     7    4    7 1
     8    5    6 1
     9    5    8 1
    10    8    9 1
    11    9   10 1
    12    9   11 1
    13   10   12 2
    14   10   13 am
    15   11   36 1
    16   11   37 1
    17   13   14 1
    18   14   15 1
    19   15   16 1
    20   16   38 1
    21   16   42 1
    22   17   18 1
    23   17   19 1
    24   20   21 am
    25   21   22 1
    26   21   23 2
    27   22   24 2
    28   22   28 1
    29   24   25 1
    30   24   29 1
    31   25   26 2
    32   26   27 1
    33   27   28 2
    34   29   30 1
    35   30   31 1
    36   31   32 1
    37   32   33 1
    38   33   34 1
    39   34   35 1
    40   38   39 1
    41   39   40 1
    42   40   41 1
    43   40   43 am
    44   41   42 1
    45   43   44 2
    46   43   45 1
    47    1   46 1
    48    1   47 1
    49    2   48 1
    50    3   49 1
    51    3   50 1
    52    4   51 1
    53    5   52 1
    54    6   53 1
    55    7   54 1
    56    7   55 1
    57    7   56 1
    58    8   57 1
    59    8   58 1
    60    9   59 1
    61   11   60 1
    62   13   61 1
    63   14   62 1
    64   14   63 1
    65   15   64 1
    66   15   65 1
    67   16   66 1
    68   17   67 1
    69   18   68 1
    70   18   69 1
    71   18   70 1
    72   19   71 1
    73   19   72 1
    74   19   73 1
    75   20   74 1
    76   25   75 1
    77   26   76 1
    78   27   77 1
    79   28   78 1
    80   30   79 1
    81   30   80 1
    82   31   81 1
    83   31   82 1
    84   32   83 1
    85   32   84 1
    86   33   85 1
    87   33   86 1
    88   35   87 1
    89   35   88 1
    90   35   89 1
    91   36   90 1
    92   36   91 1
    93   36   92 1
    94   37   93 1
    95   37   94 1
    96   37   95 1
    97   38   96 1
    98   38   97 1
    99   39   98 1
   100   39   99 1
   101   41  100 1
   102   41  101 1
   103   42  102 1
   104   42  103 1
   105   45  104 1
   106   45  105 1
   107   45  106 1
@<TRIPOS>PROPERTY_DATA
  Total_Score	| 16.4393
  Crash		| -7.4287
  Polar		| 9.7160
  FragIndex	| 1
  FragRMSD	| 1.364

