@<TRIPOS>MOLECULE
BindingDB_50298188
 81 81 0 0 0
SMALL
NO_CHARGES


@<TRIPOS>ATOM
1    C         7.8073   43.1019   74.6641  C     
2    C         6.6372   43.2654   73.8877  C     
3    C         6.6179   44.1795   72.8267  C     
4    C         7.7504   44.9827   72.5349  C     
5    C         8.9069   44.8292   73.3395  C     
6    C         8.9455   43.8928   74.3920  C     
7    O        10.1300   43.6620   75.0549  O     
8    C        10.4295   44.5781   76.1313  C     
9    C         9.5920   44.2742   77.3988  C     
10   C         9.5349   45.4380   78.4260  C     
11   O         8.2288   46.0306   78.5713  O     
12   O         7.8075   42.2133   75.7037  O     
13   C         8.3285   40.9216   75.3561  C     
14   C         7.7013   45.9392   71.5398  C     
15   O         7.7464   47.1192   71.8780  O     
16   N         7.5414   45.5903   70.2664  N     
17   C         7.1572   46.4785   69.1992  C     
18   C         6.1284   45.7754   68.2539  C     
19   C         8.3851   47.0480   68.4294  C     
20   N         9.4924   47.4612   69.3252  N     
21   C        10.6324   48.2239   68.7541  C     
22   C        11.0583   47.7635   67.3317  C     
23   C        10.3840   49.7561   68.8140  C     
24   C         4.9611   45.0786   69.0276  C     
25   O         6.7504   44.7904   67.4169  O     
26   C         3.6351   44.9050   68.2189  C     
27   C         3.0509   46.1980   67.8706  C     
28   C         2.6111   44.0288   68.9951  C     
29   O         2.8343   47.0046   68.7723  O     
30   N         2.8655   46.5428   66.6021  N     
31   C         2.4980   47.8530   66.1556  C     
32   C         2.3358   47.8991   64.6192  C     
33   C         2.5938   49.3108   64.0212  C     
34   C         2.4936   49.3304   62.4800  C     
35   C         7.7600   46.8377   77.4784  C     
36   H         5.8084   42.7011   74.0939  H     
37   H         5.7475   44.2888   72.2922  H     
38   H         9.7396   45.3822   73.1402  H     
39   H        11.4865   44.4407   76.3793  H     
40   H        10.3099   45.6281   75.8312  H     
41   H         8.5758   44.0141   77.1081  H     
42   H        10.0245   43.3941   77.8792  H     
43   H         9.7893   45.0407   79.4088  H     
44   H        10.2766   46.2095   78.2012  H     
45   H         7.7459   40.4479   74.5632  H     
46   H         8.2712   40.2908   76.2409  H     
47   H         9.3708   40.9995   75.0467  H     
48   H         7.5329   44.6305   70.0687  H     
49   H         6.6304   47.3388   69.6258  H     
50   H         5.7100   46.5389   67.5905  H     
51   H         8.7824   46.2844   67.7631  H     
52   H         8.0595   47.8952   67.8221  H     
53   H         9.0969   48.0219   70.0818  H     
54   H         9.8732   46.6030   69.7335  H     
55   H        11.4884   48.0253   69.4116  H     
56   H        11.2058   46.6814   67.3145  H     
57   H        11.9932   48.2479   67.0455  H     
58   H        10.2978   48.0249   66.5954  H     
59   H         9.5728   50.0455   68.1431  H     
60   H        11.2881   50.3005   68.5274  H     
61   H        10.1173   50.0479   69.8332  H     
62   H         5.3139   44.0921   69.3451  H     
63   H         4.7476   45.6450   69.9411  H     
64   H         7.4601   45.2475   66.9091  H     
65   H         3.8783   44.3489   67.3073  H     
66   H         3.0398   43.0507   69.2354  H     
67   H         1.7130   43.8587   68.3935  H     
68   H         2.3143   44.5102   69.9326  H     
69   H         3.0552   45.8686   65.9227  H     
70   H         1.5586   48.1581   66.6225  H     
71   H         3.2815   48.5502   66.4608  H     
72   H         3.0393   47.1997   64.1629  H     
73   H         1.3256   47.5734   64.3591  H     
74   H         1.8695   50.0234   64.4289  H     
75   H         3.5974   49.6481   64.3022  H     
76   H         3.1762   48.5986   62.0399  H     
77   H         2.7611   50.3225   62.1019  H     
78   H         1.4723   49.0983   62.1666  H     
79   H         8.4751   47.6247   77.2299  H     
80   H         6.8230   47.3087   77.7754  H     
81   H         7.5642   46.2316   76.5921  H     
@<TRIPOS>BOND
     1    1    2 2
     2    1    6 1
     3    1   12 1
     4    2    3 1
     5    3    4 2
     6    4    5 1
     7    4   14 1
     8    5    6 2
     9    6    7 1
    10    7    8 1
    11    8    9 1
    12    9   10 1
    13   10   11 1
    14   11   35 1
    15   12   13 1
    16   14   15 2
    17   14   16 am
    18   17   16 1
    19   17   18 1
    20   17   19 1
    21   18   24 1
    22   18   25 1
    23   19   20 1
    24   20   21 1
    25   21   22 1
    26   21   23 1
    27   24   26 1
    28   26   27 1
    29   26   28 1
    30   27   29 2
    31   27   30 am
    32   30   31 1
    33   31   32 1
    34   32   33 1
    35   33   34 1
    36    2   36 1
    37    3   37 1
    38    5   38 1
    39    8   39 1
    40    8   40 1
    41    9   41 1
    42    9   42 1
    43   10   43 1
    44   10   44 1
    45   13   45 1
    46   13   46 1
    47   13   47 1
    48   16   48 1
    49   17   49 1
    50   18   50 1
    51   19   51 1
    52   19   52 1
    53   20   53 1
    54   20   54 1
    55   21   55 1
    56   22   56 1
    57   22   57 1
    58   22   58 1
    59   23   59 1
    60   23   60 1
    61   23   61 1
    62   24   62 1
    63   24   63 1
    64   25   64 1
    65   26   65 1
    66   28   66 1
    67   28   67 1
    68   28   68 1
    69   30   69 1
    70   31   70 1
    71   31   71 1
    72   32   72 1
    73   32   73 1
    74   33   74 1
    75   33   75 1
    76   34   76 1
    77   34   77 1
    78   34   78 1
    79   35   79 1
    80   35   80 1
    81   35   81 1
@<TRIPOS>PROPERTY_DATA
  Total_Score	| 12.1367
  Crash		| -2.5668
  Polar		| 6.4242
  FragIndex	| 1
  FragRMSD	| 0.495

