@<TRIPOS>MOLECULE
BindingDB_50298198
 77 77 0 0 0
SMALL
NO_CHARGES


@<TRIPOS>ATOM
1    C        12.5890   47.9608   72.5309  C     
2    C        12.5974   49.2589   73.0863  C     
3    C        11.5464   50.1499   72.8159  C     
4    C        10.4716   49.7512   71.9939  C     
5    C        10.4343   48.4557   71.4257  C     
6    C        11.5031   47.5635   71.7126  C     
7    Br       13.9549   49.7895   74.2532  Br    
8    O        13.5391   47.0629   72.9436  O     
9    C         9.3790   48.0606   70.6213  C     
10   N         9.3953   47.9228   69.2661  N     
11   C         8.1664   47.5651   68.5567  C     
12   C        10.5497   48.4308   68.5011  C     
13   C        10.8441   47.7379   67.1363  C     
14   C        10.4311   49.9709   68.3327  C     
15   C         7.3760   46.2964   69.0236  C     
16   C         6.0636   46.0548   68.1994  C     
17   N         8.2204   45.0991   69.0113  N     
18   C         4.9993   45.2240   68.9775  C     
19   O         6.3393   45.4143   66.9520  O     
20   C         3.6217   45.0048   68.2702  C     
21   C         2.9748   46.2685   67.9198  C     
22   C         2.6827   44.1328   69.1528  C     
23   O         2.7038   47.0622   68.8147  O     
24   N         2.7704   46.5835   66.6450  N     
25   C         2.3567   47.8716   66.1740  C     
26   C         2.1850   47.8927   64.6285  C     
27   C         2.5510   49.2605   63.9894  C     
28   C         2.4468   49.2490   62.4459  C     
29   O         8.3648   47.8025   71.2798  O     
30   C        14.3887   46.4487   71.9505  C     
31   C        13.7889   45.1128   71.4496  C     
32   C        14.8115   43.9828   71.1563  C     
33   O        15.9344   44.3814   70.3508  O     
34   C        15.6368   44.7549   68.9996  C     
35   H        11.5465   51.0881   73.2302  H     
36   H         9.7111   50.4167   71.8188  H     
37   H        11.4827   46.6118   71.3446  H     
38   H         7.4925   48.4223   68.6254  H     
39   H         8.3467   47.4371   67.4881  H     
40   H        11.4738   48.2672   69.0593  H     
41   H        10.8510   46.6541   67.2571  H     
42   H        11.8282   48.0443   66.7689  H     
43   H        10.1139   48.0113   66.3761  H     
44   H         9.5894   50.2274   67.6819  H     
45   H        11.3483   50.3782   67.9047  H     
46   H        10.2720   50.4447   69.3051  H     
47   H         7.0887   46.4357   70.0689  H     
48   H         5.6200   47.0242   67.9659  H     
49   H         8.5100   44.8949   68.0566  H     
50   H         7.6936   44.3051   69.3813  H     
51   H         9.0416   45.2556   69.5934  H     
52   H         5.4346   44.2456   69.1975  H     
53   H         4.8193   45.7217   69.9320  H     
54   H         7.0971   45.8887   66.5415  H     
55   H         3.8126   44.4254   67.3595  H     
56   H         3.1466   43.1648   69.3634  H     
57   H         1.7340   43.9490   68.6422  H     
58   H         2.4728   44.6273   70.1067  H     
59   H         3.0016   45.9149   65.9788  H     
60   H         1.4125   48.1589   66.6468  H     
61   H         3.1213   48.5976   66.4609  H     
62   H         2.8241   47.1241   64.1888  H     
63   H         1.1485   47.6442   64.3830  H     
64   H         1.8902   50.0396   64.3813  H     
65   H         3.5788   49.5203   64.2564  H     
66   H         3.0594   48.4474   62.0293  H     
67   H         2.8015   50.2001   62.0424  H     
68   H         1.4097   49.1027   62.1390  H     
69   H        14.5997   47.1176   71.1114  H     
70   H        15.3366   46.2434   72.4494  H     
71   H        13.1134   44.7354   72.2190  H     
72   H        13.1943   45.3034   70.5579  H     
73   H        15.2177   43.6297   72.1067  H     
74   H        14.2888   43.1382   70.6973  H     
75   H        15.1551   43.9413   68.4509  H     
76   H        16.5722   44.9886   68.4944  H     
77   H        15.0044   45.6411   68.9835  H     
@<TRIPOS>BOND
     1    1    2 2
     2    1    6 1
     3    1    8 1
     4    2    3 1
     5    2    7 1
     6    3    4 2
     7    4    5 1
     8    5    6 2
     9    5    9 1
    10    8   30 1
    11    9   10 am
    12    9   29 2
    13   10   11 1
    14   10   12 1
    15   11   15 1
    16   12   13 1
    17   12   14 1
    18   15   16 1
    19   15   17 1
    20   16   18 1
    21   16   19 1
    22   18   20 1
    23   20   21 1
    24   20   22 1
    25   21   23 2
    26   21   24 am
    27   24   25 1
    28   25   26 1
    29   26   27 1
    30   27   28 1
    31   30   31 1
    32   31   32 1
    33   32   33 1
    34   33   34 1
    35    3   35 1
    36    4   36 1
    37    6   37 1
    38   11   38 1
    39   11   39 1
    40   12   40 1
    41   13   41 1
    42   13   42 1
    43   13   43 1
    44   14   44 1
    45   14   45 1
    46   14   46 1
    47   15   47 1
    48   16   48 1
    49   17   49 1
    50   17   50 1
    51   17   51 1
    52   18   52 1
    53   18   53 1
    54   19   54 1
    55   20   55 1
    56   22   56 1
    57   22   57 1
    58   22   58 1
    59   24   59 1
    60   25   60 1
    61   25   61 1
    62   26   62 1
    63   26   63 1
    64   27   64 1
    65   27   65 1
    66   28   66 1
    67   28   67 1
    68   28   68 1
    69   30   69 1
    70   30   70 1
    71   31   71 1
    72   31   72 1
    73   32   73 1
    74   32   74 1
    75   34   75 1
    76   34   76 1
    77   34   77 1
@<TRIPOS>PROPERTY_DATA
  Total_Score	| 14.5037
  Crash		| -2.0096
  Polar		| 8.0560
  FragIndex	| 1
  FragRMSD	| 0.091

