@<TRIPOS>MOLECULE
BindingDB_50298197
 83 83 0 0 0
SMALL
NO_CHARGES


@<TRIPOS>ATOM
1    C        13.4310   48.7014   72.9054  C     
2    C        13.6542   49.2071   74.2160  C     
3    C        12.8282   50.2550   74.7008  C     
4    C        11.7504   50.7395   73.9415  C     
5    C        11.4801   50.2277   72.6542  C     
6    C        12.3892   49.2710   72.1384  C     
7    C        14.7375   48.7053   75.1138  C     
8    C        14.1963   47.9893   76.3729  C     
9    O        14.2410   47.6917   72.3971  O     
10   C        10.4255   50.7238   71.8746  C     
11   N         9.7178   50.0792   70.9020  N     
12   C         9.7254   48.6092   70.7772  C     
13   C         8.9413   50.8991   69.9402  C     
14   C         8.6767   50.3672   68.4957  C     
15   C         7.6046   51.4044   70.5658  C     
16   C         8.3672   47.8723   70.5669  C     
17   C         8.5270   46.4155   70.0443  C     
18   N         7.6190   47.8642   71.8339  N     
19   C         7.1860   45.6286   69.8928  C     
20   O         9.3872   45.6929   70.9394  O     
21   C         6.0916   46.2606   68.9688  C     
22   C         4.7510   45.8235   69.3440  C     
23   C         6.3457   45.9660   67.4648  C     
24   O         3.8729   46.6731   69.4686  O     
25   N         4.4870   44.5303   69.4791  N     
26   C         3.1804   43.9556   69.4440  C     
27   C         2.5977   44.1296   68.0199  C     
28   C         1.5127   43.0839   67.6584  C     
29   C         1.7669   42.4672   66.2647  C     
30   O        10.2646   51.9394   72.0225  O     
31   C        13.9940   47.1659   71.0678  C     
32   C        15.1286   46.2460   70.5857  C     
33   C        14.9747   44.7873   71.0939  C     
34   O        15.9950   43.9128   70.5782  O     
35   C        15.5278   42.8253   69.7621  C     
36   H        12.9988   50.6562   75.6302  H     
37   H        11.1645   51.4670   74.3532  H     
38   H        12.2856   48.9868   71.1581  H     
39   H        15.3984   48.0095   74.5900  H     
40   H        15.3498   49.5569   75.4272  H     
41   H        13.5627   48.6521   76.9634  H     
42   H        15.0262   47.6791   77.0063  H     
43   H        13.6175   47.1045   76.0957  H     
44   H        10.3799   48.3708   69.9424  H     
45   H        10.1653   48.1421   71.6560  H     
46   H         9.5358   51.7965   69.7272  H     
47   H         9.5475   49.8497   68.0909  H     
48   H         8.4537   51.2032   67.8219  H     
49   H         7.8135   49.7063   68.4940  H     
50   H         6.9394   50.5672   70.7863  H     
51   H         7.0866   52.0795   69.8856  H     
52   H         7.7849   51.9498   71.4970  H     
53   H         7.8034   48.4248   69.8207  H     
54   H         9.0287   46.4485   69.0775  H     
55   H         8.1146   47.2837   72.5171  H     
56   H         6.6757   47.4912   71.6880  H     
57   H         7.5551   48.8152   72.1903  H     
58   H         7.4282   44.6266   69.5229  H     
59   H         6.7658   45.4845   70.8950  H     
60   H         8.8276   45.0087   71.3649  H     
61   H         6.1222   47.3431   69.0829  H     
62   H         7.2774   46.4272   67.1332  H     
63   H         5.5388   46.3727   66.8492  H     
64   H         6.4117   44.8881   67.2786  H     
65   H         5.2375   43.9157   69.4078  H     
66   H         3.2772   42.8987   69.6783  H     
67   H         2.5201   44.4092   70.1857  H     
68   H         2.1560   45.1300   67.9236  H     
69   H         3.4218   44.0705   67.2991  H     
70   H         1.4923   42.2838   68.3985  H     
71   H         0.5333   43.5693   67.6621  H     
72   H         1.7290   43.2473   65.5017  H     
73   H         1.0103   41.7171   66.0344  H     
74   H         2.7475   41.9824   66.2286  H     
75   H        13.0476   46.6203   71.0399  H     
76   H        13.9307   47.9949   70.3640  H     
77   H        15.1331   46.2425   69.4882  H     
78   H        16.0957   46.6498   70.9145  H     
79   H        15.0860   44.8134   72.1769  H     
80   H        13.9722   44.4104   70.8754  H     
81   H        14.8017   42.2160   70.3030  H     
82   H        16.3731   42.1940   69.5045  H     
83   H        15.0835   43.1897   68.8353  H     
@<TRIPOS>BOND
     1    1    2 2
     2    1    6 1
     3    1    9 1
     4    2    3 1
     5    2    7 1
     6    3    4 2
     7    4    5 1
     8    5    6 2
     9    5   10 1
    10    7    8 1
    11    9   31 1
    12   10   11 am
    13   10   30 2
    14   11   12 1
    15   11   13 1
    16   12   16 1
    17   13   14 1
    18   13   15 1
    19   16   17 1
    20   16   18 1
    21   17   19 1
    22   17   20 1
    23   19   21 1
    24   21   22 1
    25   21   23 1
    26   22   24 2
    27   22   25 am
    28   25   26 1
    29   26   27 1
    30   27   28 1
    31   28   29 1
    32   31   32 1
    33   32   33 1
    34   33   34 1
    35   34   35 1
    36    3   36 1
    37    4   37 1
    38    6   38 1
    39    7   39 1
    40    7   40 1
    41    8   41 1
    42    8   42 1
    43    8   43 1
    44   12   44 1
    45   12   45 1
    46   13   46 1
    47   14   47 1
    48   14   48 1
    49   14   49 1
    50   15   50 1
    51   15   51 1
    52   15   52 1
    53   16   53 1
    54   17   54 1
    55   18   55 1
    56   18   56 1
    57   18   57 1
    58   19   58 1
    59   19   59 1
    60   20   60 1
    61   21   61 1
    62   23   62 1
    63   23   63 1
    64   23   64 1
    65   25   65 1
    66   26   66 1
    67   26   67 1
    68   27   68 1
    69   27   69 1
    70   28   70 1
    71   28   71 1
    72   29   72 1
    73   29   73 1
    74   29   74 1
    75   31   75 1
    76   31   76 1
    77   32   77 1
    78   32   78 1
    79   33   79 1
    80   33   80 1
    81   35   81 1
    82   35   82 1
    83   35   83 1
@<TRIPOS>PROPERTY_DATA
  Total_Score	| 8.0427
  Crash		| -5.8909
  Polar		| 3.0096
  FragIndex	| 1
  FragRMSD	| 1.376

