@<TRIPOS>MOLECULE
BindingDB_50348992
 106 107 0 0 0
SMALL
NO_CHARGES


@<TRIPOS>ATOM
1    C        13.0580   47.9667   71.9419  C     
2    C        12.9123   48.6359   73.1738  C     
3    C        11.6253   49.0548   73.5768  C     
4    C        10.5085   48.8185   72.7484  C     
5    C        10.6427   48.1721   71.4955  C     
6    C        11.9387   47.7498   71.1090  C     
7    O        14.3103   47.6471   71.4929  O     
8    C        14.5985   46.2435   71.3830  C     
9    C        15.2395   45.9923   69.9982  C     
10   C        15.4590   44.5019   69.6750  C     
11   O        16.1175   43.8214   70.7643  O     
12   C        15.2833   42.9987   71.6004  C     
13   O        13.9960   48.9544   73.9481  O     
14   C        14.6300   47.8153   74.5666  C     
15   C         9.4273   47.8674   70.6769  C     
16   C         9.4883   47.8881   69.1072  C     
17   C         8.1024   47.4823   68.4655  C     
18   C         7.3058   46.2413   68.9854  C     
19   C         6.0225   45.9771   68.1150  C     
20   C         4.8321   45.3000   68.8677  C     
21   C         3.4735   45.2534   68.0627  C     
22   C         3.1026   46.6012   67.6243  C     
23   N         3.0543   46.8878   66.3295  N     
24   C         2.7794   48.1563   65.7234  C     
25   C         1.5494   48.1376   64.7480  C     
26   C         0.2464   47.6641   65.4833  C     
27   C         9.9991   49.2297   68.4259  C     
28   C         9.3843   50.5374   69.0002  C     
29   C        11.5500   49.3513   68.3553  C     
30   N         8.1570   45.0396   69.0183  N     
31   O         6.3424   45.1971   66.9582  O     
32   C         2.2830   44.5560   68.8330  C     
33   C         0.8802   44.8340   68.1917  C     
34   C         2.4638   43.0175   68.9396  C     
35   O         2.8960   47.4529   68.4841  O     
36   C         1.3402   49.5751   64.1716  C     
37   C         1.8267   47.1730   63.5442  C     
38   N        -0.0306   48.3609   66.7065  N     
39   C        -0.9543   47.9955   67.5943  C     
40   C        -1.2339   48.8233   68.6617  C     
41   O        -1.6649   47.0168   67.4068  O     
42   C        -2.4909   49.4823   68.7580  C     
43   C        -2.7739   50.3311   69.8317  C     
44   C        -1.8253   50.5158   70.8606  C     
45   C        -0.5793   49.8685   70.7795  C     
46   C        -0.2786   49.0437   69.6920  C     
47   H        11.5119   49.5427   74.4646  H     
48   H         9.5903   49.1182   73.0868  H     
49   H        12.0857   47.3304   70.1858  H     
50   H        15.2976   45.9732   72.1738  H     
51   H        13.7037   45.6090   71.4747  H     
52   H        14.5761   46.4061   69.2320  H     
53   H        16.1890   46.5370   69.9438  H     
54   H        14.5118   44.0439   69.3963  H     
55   H        16.1250   44.4371   68.8095  H     
56   H        14.5058   43.5923   72.0852  H     
57   H        15.8961   42.5340   72.3676  H     
58   H        14.8181   42.2062   71.0033  H     
59   H        13.9382   47.2918   75.2334  H     
60   H        15.4652   48.1683   75.1700  H     
61   H        15.0189   47.1195   73.8217  H     
62   H         9.1224   46.8666   70.9890  H     
63   H         8.6215   48.5408   70.9745  H     
64   H        10.1902   47.0997   68.8209  H     
65   H         7.4319   48.3458   68.5359  H     
66   H         8.2858   47.3133   67.3970  H     
67   H         6.9932   46.4497   70.0099  H     
68   H         5.6723   46.9458   67.7570  H     
69   H         5.1466   44.2873   69.1198  H     
70   H         4.6593   45.8292   69.8091  H     
71   H         3.6675   44.6396   67.1750  H     
72   H         3.2744   46.1669   65.7192  H     
73   H         2.6340   48.9374   66.4751  H     
74   H         3.6734   48.4289   65.1547  H     
75   H        -0.6009   47.8148   64.8053  H     
76   H         0.3102   46.5930   65.6993  H     
77   H         9.6943   49.2158   67.3672  H     
78   H         8.2957   50.4629   69.0500  H     
79   H         9.6351   51.3935   68.3613  H     
80   H         9.7701   50.7347   70.0095  H     
81   H        11.9641   49.4455   69.3609  H     
82   H        11.8343   50.2205   67.7476  H     
83   H        11.9789   48.4588   67.8757  H     
84   H         8.4879   44.8324   68.0727  H     
85   H         7.6260   44.2421   69.3697  H     
86   H         8.9607   45.2000   69.6254  H     
87   H         7.1999   45.5348   66.6222  H     
88   H         2.2516   44.9536   69.8532  H     
89   H         0.6358   45.8965   68.2363  H     
90   H         0.0953   44.2992   68.7195  H     
91   H         0.8716   44.5181   67.1480  H     
92   H         2.4974   42.5832   67.9386  H     
93   H         1.6345   42.5633   69.4844  H     
94   H         3.3774   42.7556   69.4713  H     
95   H         1.0910   50.2841   64.9682  H     
96   H         0.5239   49.5873   63.4461  H     
97   H         2.2400   49.9372   63.6757  H     
98   H         2.7253   47.4722   63.0025  H     
99   H         0.9947   47.1875   62.8338  H     
100  H         1.9532   46.1457   63.8830  H     
101  H         0.4395   49.1941   66.8709  H     
102  H        -3.1946   49.3591   68.0225  H     
103  H        -3.6747   50.8155   69.8827  H     
104  H        -2.0425   51.1205   71.6537  H     
105  H         0.1072   49.9995   71.5297  H     
106  H         0.6337   48.5774   69.6500  H     
@<TRIPOS>BOND
     1    1    2 2
     2    1    6 1
     3    1    7 1
     4    2    3 1
     5    2   13 1
     6    3    4 2
     7    4    5 1
     8    5    6 2
     9    5   15 1
    10    7    8 1
    11    8    9 1
    12    9   10 1
    13   10   11 1
    14   11   12 1
    15   13   14 1
    16   15   16 1
    17   16   17 1
    18   16   27 1
    19   17   18 1
    20   18   19 1
    21   18   30 1
    22   19   20 1
    23   19   31 1
    24   20   21 1
    25   21   22 1
    26   21   32 1
    27   22   23 am
    28   22   35 2
    29   23   24 1
    30   24   25 1
    31   25   26 1
    32   25   36 1
    33   25   37 1
    34   26   38 1
    35   27   28 1
    36   27   29 1
    37   32   33 1
    38   32   34 1
    39   38   39 am
    40   39   40 1
    41   39   41 2
    42   40   42 2
    43   40   46 1
    44   42   43 1
    45   43   44 2
    46   44   45 1
    47   45   46 2
    48    3   47 1
    49    4   48 1
    50    6   49 1
    51    8   50 1
    52    8   51 1
    53    9   52 1
    54    9   53 1
    55   10   54 1
    56   10   55 1
    57   12   56 1
    58   12   57 1
    59   12   58 1
    60   14   59 1
    61   14   60 1
    62   14   61 1
    63   15   62 1
    64   15   63 1
    65   16   64 1
    66   17   65 1
    67   17   66 1
    68   18   67 1
    69   19   68 1
    70   20   69 1
    71   20   70 1
    72   21   71 1
    73   23   72 1
    74   24   73 1
    75   24   74 1
    76   26   75 1
    77   26   76 1
    78   27   77 1
    79   28   78 1
    80   28   79 1
    81   28   80 1
    82   29   81 1
    83   29   82 1
    84   29   83 1
    85   30   84 1
    86   30   85 1
    87   30   86 1
    88   31   87 1
    89   32   88 1
    90   33   89 1
    91   33   90 1
    92   33   91 1
    93   34   92 1
    94   34   93 1
    95   34   94 1
    96   36   95 1
    97   36   96 1
    98   36   97 1
    99   37   98 1
   100   37   99 1
   101   37  100 1
   102   38  101 1
   103   42  102 1
   104   43  103 1
   105   44  104 1
   106   45  105 1
   107   46  106 1
@<TRIPOS>PROPERTY_DATA
  Total_Score	| 19.1893
  Crash		| -3.1332
  Polar		| 9.1883
  FragIndex	| 1
  FragRMSD	| 0.476

