@<TRIPOS>MOLECULE
BindingDB_50298191
 81 81 0 0 0
SMALL
NO_CHARGES


@<TRIPOS>ATOM
1    C        11.0723   46.8279   72.4585  C     
2    C        10.2556   46.0618   73.3179  C     
3    C         8.8496   46.2247   73.2401  C     
4    C         8.2846   47.1620   72.3444  C     
5    C         9.0982   47.8811   71.4415  C     
6    C        10.5038   47.7410   71.5476  C     
7    O        10.8908   45.1104   74.0711  O     
8    C        10.4337   44.8437   75.4146  C     
9    O        12.4374   46.8041   72.5719  O     
10   C        13.1148   45.9654   71.6203  C     
11   C        14.5811   46.4486   71.4735  C     
12   C        15.3509   45.8836   70.2432  C     
13   O        15.9444   44.5780   70.4241  O     
14   C        15.0703   43.5195   70.8613  C     
15   C         8.5557   48.7309   70.4790  C     
16   N         8.6353   48.5150   69.1388  N     
17   C         8.7322   47.1444   68.6327  C     
18   C         8.6321   49.6801   68.2265  C     
19   C         9.8391   50.6425   68.4808  C     
20   C         8.5937   49.4153   66.6900  C     
21   C         7.6119   46.1590   69.0939  C     
22   C         6.3184   46.0778   68.2037  C     
23   N         8.2149   44.8221   69.2197  N     
24   C         5.0852   45.5567   69.0158  C     
25   O         6.5329   45.2342   67.0719  O     
26   C         3.7826   45.2106   68.2237  C     
27   C         3.0639   46.3936   67.7563  C     
28   C         2.8391   44.3059   69.0730  C     
29   O         2.7299   47.2548   68.5604  O     
30   N         2.7183   46.4750   66.4699  N     
31   C         1.9197   47.4789   65.8372  C     
32   C         2.7269   48.7305   65.3958  C     
33   C         2.1067   49.5053   64.1954  C     
34   C         2.9133   49.3966   62.8810  C     
35   O         8.1747   49.8018   70.9422  O     
36   H         8.2294   45.6651   73.8377  H     
37   H         7.2630   47.2743   72.3295  H     
38   H        11.1220   48.2972   70.9431  H     
39   H        10.3193   45.7621   75.9945  H     
40   H        11.1853   44.2266   75.9049  H     
41   H         9.4866   44.2983   75.3919  H     
42   H        13.1183   44.9337   71.9941  H     
43   H        12.6304   45.9962   70.6344  H     
44   H        14.5672   47.5460   71.3801  H     
45   H        15.1270   46.2027   72.3899  H     
46   H        14.7306   45.9319   69.3399  H     
47   H        16.1970   46.5493   70.0743  H     
48   H        14.7574   43.6501   71.9008  H     
49   H        15.6138   42.5753   70.7705  H     
50   H        14.1777   43.4537   70.2333  H     
51   H         8.7425   47.1039   67.5485  H     
52   H         9.7129   46.7686   68.9399  H     
53   H         7.7218   50.2508   68.4426  H     
54   H         9.8820   50.9871   69.5088  H     
55   H         9.7560   51.5334   67.8470  H     
56   H        10.7855   50.1538   68.2445  H     
57   H         9.5498   49.0156   66.3285  H     
58   H         8.3989   50.3569   66.1486  H     
59   H         7.7951   48.6947   66.4653  H     
60   H         7.2953   46.4368   70.0945  H     
61   H         6.0746   47.0765   67.8321  H     
62   H         8.5622   44.5037   68.3124  H     
63   H         7.5329   44.1604   69.5743  H     
64   H         8.9935   44.8710   69.8754  H     
65   H         5.3847   44.6461   69.5324  H     
66   H         4.8551   46.2889   69.7927  H     
67   H         7.4116   45.4808   66.7022  H     
68   H         4.0740   44.5973   67.3661  H     
69   H         3.3492   43.3767   69.3389  H     
70   H         1.9432   44.0417   68.5062  H     
71   H         2.5330   44.8088   69.9926  H     
72   H         2.9925   45.7417   65.8933  H     
73   H         1.4763   47.0149   64.9504  H     
74   H         1.1041   47.7819   66.5009  H     
75   H         2.7922   49.4186   66.2443  H     
76   H         3.7461   48.4263   65.1485  H     
77   H         1.0832   49.1575   64.0209  H     
78   H         2.0484   50.5658   64.4603  H     
79   H         3.9207   49.8030   63.0155  H     
80   H         2.4135   49.9722   62.0980  H     
81   H         2.9881   48.3545   62.5578  H     
@<TRIPOS>BOND
     1    1    2 2
     2    1    6 1
     3    1    9 1
     4    2    3 1
     5    2    7 1
     6    3    4 2
     7    4    5 1
     8    5    6 2
     9    5   15 1
    10    7    8 1
    11    9   10 1
    12   10   11 1
    13   11   12 1
    14   12   13 1
    15   13   14 1
    16   15   16 am
    17   15   35 2
    18   16   17 1
    19   16   18 1
    20   17   21 1
    21   18   19 1
    22   18   20 1
    23   21   22 1
    24   21   23 1
    25   22   24 1
    26   22   25 1
    27   24   26 1
    28   26   27 1
    29   26   28 1
    30   27   29 2
    31   27   30 am
    32   30   31 1
    33   31   32 1
    34   32   33 1
    35   33   34 1
    36    3   36 1
    37    4   37 1
    38    6   38 1
    39    8   39 1
    40    8   40 1
    41    8   41 1
    42   10   42 1
    43   10   43 1
    44   11   44 1
    45   11   45 1
    46   12   46 1
    47   12   47 1
    48   14   48 1
    49   14   49 1
    50   14   50 1
    51   17   51 1
    52   17   52 1
    53   18   53 1
    54   19   54 1
    55   19   55 1
    56   19   56 1
    57   20   57 1
    58   20   58 1
    59   20   59 1
    60   21   60 1
    61   22   61 1
    62   23   62 1
    63   23   63 1
    64   23   64 1
    65   24   65 1
    66   24   66 1
    67   25   67 1
    68   26   68 1
    69   28   69 1
    70   28   70 1
    71   28   71 1
    72   30   72 1
    73   31   73 1
    74   31   74 1
    75   32   75 1
    76   32   76 1
    77   33   77 1
    78   33   78 1
    79   34   79 1
    80   34   80 1
    81   34   81 1
@<TRIPOS>PROPERTY_DATA
  Total_Score	| 14.8866
  Crash		| -2.9386
  Polar		| 9.1034
  FragIndex	| 1
  FragRMSD	| 0.519

