@<TRIPOS>MOLECULE
BindingDB_50348993
 110 111 0 0 0
SMALL
NO_CHARGES


@<TRIPOS>ATOM
1    C        12.5305   46.8567   72.4248  C     
2    C        12.6501   47.7764   73.4900  C     
3    C        11.6135   48.6964   73.7355  C     
4    C        10.4748   48.7143   72.9163  C     
5    C        10.3380   47.7977   71.8395  C     
6    C        11.3741   46.8600   71.6229  C     
7    O        13.5173   45.9311   72.2291  O     
8    C        14.7204   46.4006   71.5738  C     
9    C        14.7750   45.9956   70.0824  C     
10   C        15.0105   44.4821   69.8650  C     
11   O        15.9420   43.9803   70.8463  O     
12   C        15.3669   42.9959   71.7170  C     
13   O        13.7244   47.7228   74.3312  O     
14   C        14.5904   48.8722   74.2621  C     
15   C         9.1270   47.8016   70.9703  C     
16   C         9.3340   47.9522   69.4140  C     
17   C         8.0290   47.5106   68.6542  C     
18   C         7.2619   46.2109   69.0533  C     
19   C         6.0144   45.9926   68.1248  C     
20   C         4.8053   45.2937   68.8415  C     
21   C         3.4514   45.2835   68.0345  C     
22   C         3.1090   46.6481   67.6380  C     
23   N         3.1043   46.9887   66.3518  N     
24   C         2.8574   48.2888   65.7987  C     
25   C         1.6283   48.3194   64.8223  C     
26   C         0.3454   47.6796   65.4680  C     
27   C         9.7870   49.4171   68.9869  C     
28   C        11.2831   49.5067   68.5450  C     
29   C         8.9531   50.0914   67.8451  C     
30   N         8.1484   45.0383   69.0168  N     
31   O         6.3337   45.2661   66.9297  O     
32   C         2.2583   44.5895   68.7975  C     
33   C         0.8589   44.8745   68.1569  C     
34   C         2.4345   43.0453   68.8940  C     
35   O         2.9200   47.4787   68.5204  O     
36   C         1.3053   49.8058   64.4560  C     
37   C         1.9749   47.5526   63.5069  C     
38   N        -0.0586   48.3249   66.6804  N     
39   C        -1.2514   48.2539   67.2745  C     
40   C        -1.4973   48.9009   68.4819  C     
41   O        -2.1715   47.6766   66.6809  O     
42   C        -2.8073   49.3344   68.8314  C     
43   C        -3.0615   49.9689   70.0609  C     
44   C        -2.0181   50.1626   70.9864  C     
45   C        -0.7136   49.7660   70.6516  C     
46   C        -0.4571   49.1360   69.4231  C     
47   O        -2.2587   50.7576   72.1926  O     
48   C        -2.7694   49.8444   73.1763  C     
49   H        11.6953   49.3606   74.5107  H     
50   H         9.7366   49.3975   73.1185  H     
51   H        11.2798   46.1777   70.8728  H     
52   H        14.8756   47.4849   71.6681  H     
53   H        15.5544   45.9204   72.0960  H     
54   H        13.8371   46.2748   69.5999  H     
55   H        15.5784   46.5589   69.5961  H     
56   H        14.0420   43.9734   69.9285  H     
57   H        15.4203   44.3244   68.8671  H     
58   H        14.5218   43.4085   72.2670  H     
59   H        16.1225   42.6970   72.4427  H     
60   H        15.0458   42.1157   71.1558  H     
61   H        15.0228   48.9901   73.2634  H     
62   H        15.4114   48.7166   74.9648  H     
63   H        14.0662   49.7924   74.5466  H     
64   H         8.6368   46.8498   71.1880  H     
65   H         8.4327   48.5900   71.2952  H     
66   H        10.1175   47.2492   69.1142  H     
67   H         7.3223   48.3423   68.7359  H     
68   H         8.2890   47.3870   67.6009  H     
69   H         6.9097   46.3470   70.0819  H     
70   H         5.6588   46.9721   67.7975  H     
71   H         5.1097   44.2690   69.0736  H     
72   H         4.6210   45.7989   69.8007  H     
73   H         3.6417   44.6868   67.1335  H     
74   H         3.2963   46.2882   65.7085  H     
75   H         2.7271   49.0413   66.5834  H     
76   H         3.7619   48.5820   65.2504  H     
77   H        -0.4709   47.7170   64.7391  H     
78   H         0.5228   46.6221   65.6964  H     
79   H         9.6685   50.0675   69.8638  H     
80   H        11.9649   49.2326   69.3502  H     
81   H        11.5299   50.5409   68.2602  H     
82   H        11.4732   48.8522   67.6789  H     
83   H         9.0100   49.4940   66.9290  H     
84   H         9.3284   51.0980   67.6423  H     
85   H         7.9015   50.1992   68.1378  H     
86   H         8.5058   44.9230   68.0657  H     
87   H         7.6262   44.2022   69.2907  H     
88   H         8.9333   45.1753   69.6470  H     
89   H         7.2112   45.5962   66.6427  H     
90   H         2.2186   44.9718   69.8205  H     
91   H         0.6190   45.9375   68.2244  H     
92   H         0.0657   44.3359   68.6764  H     
93   H         0.8554   44.5765   67.1060  H     
94   H         2.4855   42.6191   67.8872  H     
95   H         1.5968   42.5816   69.4196  H     
96   H         3.3422   42.7807   69.4386  H     
97   H         1.0518   50.3820   65.3479  H     
98   H         0.4603   49.8560   63.7685  H     
99   H         2.1638   50.2799   63.9797  H     
100  H         2.8230   48.0129   63.0022  H     
101  H         1.1298   47.5593   62.8185  H     
102  H         2.2276   46.5120   63.7126  H     
103  H         0.5960   48.9025   67.1095  H     
104  H        -3.5884   49.2114   68.1831  H     
105  H        -4.0074   50.2781   70.2853  H     
106  H         0.0551   49.9127   71.3074  H     
107  H         0.5002   48.8292   69.2269  H     
108  H        -3.7293   49.4280   72.8691  H     
109  H        -2.9187   50.3967   74.1015  H     
110  H        -2.0687   49.0319   73.3750  H     
@<TRIPOS>BOND
     1    1    2 2
     2    1    6 1
     3    1    7 1
     4    2    3 1
     5    2   13 1
     6    3    4 2
     7    4    5 1
     8    5    6 2
     9    5   15 1
    10    7    8 1
    11    8    9 1
    12    9   10 1
    13   10   11 1
    14   11   12 1
    15   13   14 1
    16   15   16 1
    17   16   17 1
    18   16   27 1
    19   17   18 1
    20   18   19 1
    21   18   30 1
    22   19   20 1
    23   19   31 1
    24   20   21 1
    25   21   22 1
    26   21   32 1
    27   22   23 am
    28   22   35 2
    29   23   24 1
    30   24   25 1
    31   25   26 1
    32   25   36 1
    33   25   37 1
    34   26   38 1
    35   27   28 1
    36   27   29 1
    37   32   33 1
    38   32   34 1
    39   38   39 am
    40   39   40 1
    41   39   41 2
    42   40   42 2
    43   40   46 1
    44   42   43 1
    45   43   44 2
    46   44   45 1
    47   44   47 1
    48   45   46 2
    49   47   48 1
    50    3   49 1
    51    4   50 1
    52    6   51 1
    53    8   52 1
    54    8   53 1
    55    9   54 1
    56    9   55 1
    57   10   56 1
    58   10   57 1
    59   12   58 1
    60   12   59 1
    61   12   60 1
    62   14   61 1
    63   14   62 1
    64   14   63 1
    65   15   64 1
    66   15   65 1
    67   16   66 1
    68   17   67 1
    69   17   68 1
    70   18   69 1
    71   19   70 1
    72   20   71 1
    73   20   72 1
    74   21   73 1
    75   23   74 1
    76   24   75 1
    77   24   76 1
    78   26   77 1
    79   26   78 1
    80   27   79 1
    81   28   80 1
    82   28   81 1
    83   28   82 1
    84   29   83 1
    85   29   84 1
    86   29   85 1
    87   30   86 1
    88   30   87 1
    89   30   88 1
    90   31   89 1
    91   32   90 1
    92   33   91 1
    93   33   92 1
    94   33   93 1
    95   34   94 1
    96   34   95 1
    97   34   96 1
    98   36   97 1
    99   36   98 1
   100   36   99 1
   101   37  100 1
   102   37  101 1
   103   37  102 1
   104   38  103 1
   105   42  104 1
   106   43  105 1
   107   45  106 1
   108   46  107 1
   109   48  108 1
   110   48  109 1
   111   48  110 1
@<TRIPOS>PROPERTY_DATA
  Total_Score	| 17.1805
  Crash		| -4.1687
  Polar		| 9.1163
  FragIndex	| 1
  FragRMSD	| 0.640

