@<TRIPOS>MOLECULE
BindingDB_50298203
 83 83 0 0 0
SMALL
NO_CHARGES


@<TRIPOS>ATOM
1    C        13.8306   48.9098   73.3654  C     
2    C        14.2849   49.6229   74.5014  C     
3    C        13.6119   50.7997   74.9062  C     
4    C        12.4309   51.1906   74.2582  C     
5    C        11.9342   50.4694   73.1464  C     
6    C        12.6825   49.3622   72.6890  C     
7    O        15.3838   49.1899   75.1877  O     
8    O        14.3788   47.7000   73.0118  O     
9    C        10.6665   50.9219   72.5061  C     
10   N        10.1124   50.1910   71.3005  N     
11   C         9.5634   48.8175   71.6248  C     
12   C         9.2791   51.0981   70.3968  C     
13   C         9.9866   51.2293   69.0252  C     
14   C         7.7608   50.7979   70.1654  C     
15   C         9.4712   47.7768   70.4663  C     
16   C        10.6003   47.8198   69.3692  C     
17   N         9.3215   46.4320   71.0635  N     
18   C        10.2184   47.9371   67.8496  C     
19   O        11.4817   46.7041   69.5270  O     
20   C         8.7100   48.0894   67.4086  C     
21   C         7.8933   46.8968   67.6652  C     
22   C         8.6201   48.5716   65.9268  C     
23   O         8.3090   46.0063   68.3913  O     
24   N         6.6920   46.7651   67.1192  N     
25   C         5.7998   45.6457   67.2198  C     
26   C         4.5422   45.9834   68.0511  C     
27   C         4.7302   45.9763   69.5932  C     
28   C         5.5449   44.7794   70.1446  C     
29   C        14.5528   47.4829   71.5944  C     
30   C        14.7162   45.9710   71.3491  C     
31   C        15.4368   45.6464   70.0154  C     
32   O        16.0876   44.3648   70.0541  O     
33   C        15.3717   43.2518   69.4907  C     
34   C        15.0903   48.7897   76.5379  C     
35   H        13.9608   51.3371   75.7034  H     
36   H        11.9394   52.0162   74.6045  H     
37   H        12.3835   48.8571   71.8606  H     
38   H         9.8858   50.9731   73.2685  H     
39   H        10.8932   51.9460   72.2099  H     
40   H        10.9541   50.0144   70.7546  H     
41   H        10.1626   48.3540   72.4198  H     
42   H         8.5771   48.9151   72.0726  H     
43   H         9.2505   52.1074   70.8066  H     
44   H        11.0269   51.5231   69.1643  H     
45   H         9.4886   51.9710   68.3950  H     
46   H         9.9730   50.2754   68.5146  H     
47   H         7.6061   49.9021   69.5618  H     
48   H         7.3057   51.6380   69.6486  H     
49   H         7.2358   50.6905   71.1101  H     
50   H         8.5100   47.9490   70.0037  H     
51   H        11.2439   48.6799   69.5824  H     
52   H        10.0212   46.2923   71.7872  H     
53   H         9.4434   45.7193   70.3508  H     
54   H         8.3960   46.3382   71.4756  H     
55   H        10.7794   48.7913   67.4505  H     
56   H        10.6337   47.0796   67.3134  H     
57   H        11.7896   46.7325   70.4720  H     
58   H         8.2616   48.9145   67.9679  H     
59   H         8.8894   49.6236   65.8680  H     
60   H         7.6048   48.4777   65.5318  H     
61   H         9.2986   48.0088   65.2829  H     
62   H         6.3880   47.5043   66.5756  H     
63   H         5.4859   45.4019   66.2025  H     
64   H         6.2832   44.7654   67.6424  H     
65   H         4.1869   46.9741   67.7490  H     
66   H         3.7603   45.2666   67.7877  H     
67   H         5.2012   46.9132   69.9105  H     
68   H         3.7317   45.9455   70.0320  H     
69   H         5.1752   43.8394   69.7191  H     
70   H         5.4448   44.7410   71.2305  H     
71   H         6.6026   44.9045   69.8938  H     
72   H        13.7099   47.8520   70.9987  H     
73   H        15.4547   48.0127   71.2688  H     
74   H        15.2732   45.5311   72.1868  H     
75   H        13.7116   45.5128   71.3368  H     
76   H        14.7285   45.7181   69.1841  H     
77   H        16.2238   46.3818   69.8504  H     
78   H        14.3839   43.1352   69.9459  H     
79   H        15.9518   42.3465   69.6761  H     
80   H        15.2748   43.3825   68.4102  H     
81   H        14.6705   49.6042   77.1258  H     
82   H        16.0195   48.4860   77.0092  H     
83   H        14.3971   47.9313   76.5530  H     
@<TRIPOS>BOND
     1    1    2 2
     2    1    6 1
     3    1    8 1
     4    2    3 1
     5    2    7 1
     6    3    4 2
     7    4    5 1
     8    5    6 2
     9    5    9 1
    10    7   34 1
    11    8   29 1
    12    9   10 1
    13   10   11 1
    14   10   12 1
    15   11   15 1
    16   12   13 1
    17   12   14 1
    18   15   16 1
    19   15   17 1
    20   16   18 1
    21   16   19 1
    22   18   20 1
    23   20   21 1
    24   20   22 1
    25   21   23 2
    26   21   24 am
    27   24   25 1
    28   25   26 1
    29   26   27 1
    30   27   28 1
    31   29   30 1
    32   30   31 1
    33   31   32 1
    34   32   33 1
    35    3   35 1
    36    4   36 1
    37    6   37 1
    38    9   38 1
    39    9   39 1
    40   10   40 1
    41   11   41 1
    42   11   42 1
    43   12   43 1
    44   13   44 1
    45   13   45 1
    46   13   46 1
    47   14   47 1
    48   14   48 1
    49   14   49 1
    50   15   50 1
    51   16   51 1
    52   17   52 1
    53   17   53 1
    54   17   54 1
    55   18   55 1
    56   18   56 1
    57   19   57 1
    58   20   58 1
    59   22   59 1
    60   22   60 1
    61   22   61 1
    62   24   62 1
    63   25   63 1
    64   25   64 1
    65   26   65 1
    66   26   66 1
    67   27   67 1
    68   27   68 1
    69   28   69 1
    70   28   70 1
    71   28   71 1
    72   29   72 1
    73   29   73 1
    74   30   74 1
    75   30   75 1
    76   31   76 1
    77   31   77 1
    78   33   78 1
    79   33   79 1
    80   33   80 1
    81   34   81 1
    82   34   82 1
    83   34   83 1
@<TRIPOS>PROPERTY_DATA
  Total_Score	| 3.3252
  Crash		| -7.8497
  Polar		| 1.8850
  FragIndex	| 1
  FragRMSD	| 1.331

