@<TRIPOS>MOLECULE
BindingDB_50298196
 80 80 0 0 0
SMALL
NO_CHARGES


@<TRIPOS>ATOM
1    C        12.2461   46.1613   72.2255  C     
2    C        13.1771   45.7287   71.2528  C     
3    C        13.0716   46.2296   69.9444  C     
4    C        12.0329   47.1136   69.5845  C     
5    C        11.0457   47.4665   70.5283  C     
6    C        11.1692   46.9918   71.8489  C     
7    O        12.3901   45.7877   73.5329  O     
8    C        10.1014   48.4483   70.2288  C     
9    N         9.1023   48.4004   69.3160  N     
10   C         8.8134   47.1999   68.5179  C     
11   C         8.2850   49.5854   68.9656  C     
12   C         8.1276   50.7172   70.0249  C     
13   C         8.7636   50.1786   67.6061  C     
14   C         7.7038   46.2541   69.1162  C     
15   C         6.3902   46.1390   68.2609  C     
16   N         8.2827   44.9097   69.3116  N     
17   C         5.1568   45.6058   69.0681  C     
18   O         6.5883   45.2752   67.1363  O     
19   C         3.8749   45.2332   68.2386  C     
20   C         3.1594   46.3981   67.7196  C     
21   C         2.9001   44.3436   69.0662  C     
22   O         2.7874   47.2658   68.5030  O     
23   N         2.8179   46.4374   66.4312  N     
24   C         1.9525   47.3728   65.7870  C     
25   C         2.6259   48.6984   65.3411  C     
26   C         2.0058   49.3629   64.0781  C     
27   C         2.8032   49.1142   62.7738  C     
28   O        10.2824   49.4620   70.9042  O     
29   C        12.8723   46.8080   74.4449  C     
30   C        14.3452   47.2518   74.1960  C     
31   C        14.7550   48.6016   74.8473  C     
32   O        15.6428   48.4948   75.9836  O     
33   C        15.0306   48.2953   77.2666  C     
34   C        14.2683   44.7913   71.6094  C     
35   H        13.7609   45.9800   69.2402  H     
36   H        12.0051   47.4988   68.6339  H     
37   H        10.4890   47.2793   72.5559  H     
38   H         8.5296   47.4807   67.4979  H     
39   H         9.7212   46.6336   68.3382  H     
40   H         7.2400   49.2682   68.7964  H     
41   H         7.8910   50.2689   70.9976  H     
42   H         7.3319   51.3897   69.7274  H     
43   H         9.0315   51.3344   70.1060  H     
44   H         9.7923   50.5619   67.6844  H     
45   H         8.1046   50.9986   67.2876  H     
46   H         8.7341   49.3998   66.8338  H     
47   H         7.4338   46.6286   70.1086  H     
48   H         6.1287   47.1316   67.8889  H     
49   H         8.6550   44.5562   68.4211  H     
50   H         7.5828   44.2395   69.6299  H     
51   H         9.0425   44.9604   69.9949  H     
52   H         5.4710   44.7102   69.6169  H     
53   H         4.8857   46.3598   69.8222  H     
54   H         7.4376   45.5264   66.7269  H     
55   H         4.1980   44.5998   67.4060  H     
56   H         3.3855   43.4057   69.3584  H     
57   H         2.0146   44.0924   68.4739  H     
58   H         2.5759   44.8624   69.9744  H     
59   H         3.1361   45.7105   65.8742  H     
60   H         1.5608   46.8638   64.9017  H     
61   H         1.1027   47.5917   66.4428  H     
62   H         2.5482   49.4110   66.1667  H     
63   H         3.6843   48.5117   65.1679  H     
64   H         0.9775   49.0193   63.9451  H     
65   H         1.9711   50.4445   64.2388  H     
66   H         3.7908   49.5785   62.8435  H     
67   H         2.2751   49.5615   61.9293  H     
68   H         2.9287   48.0462   62.5787  H     
69   H        12.2101   47.6791   74.4148  H     
70   H        12.7944   46.3888   75.4495  H     
71   H        15.0177   46.4693   74.5473  H     
72   H        14.4854   47.3580   73.1191  H     
73   H        15.3289   49.1577   74.0966  H     
74   H        13.8810   49.2244   75.0719  H     
75   H        14.2834   49.0629   77.4696  H     
76   H        15.8054   48.3669   78.0251  H     
77   H        14.5739   47.3121   77.3418  H     
78   H        14.9116   45.2445   72.3530  H     
79   H        14.8949   44.5243   70.7593  H     
80   H        13.8466   43.8786   72.0209  H     
@<TRIPOS>BOND
     1    1    2 2
     2    1    6 1
     3    1    7 1
     4    2    3 1
     5    2   34 1
     6    3    4 2
     7    4    5 1
     8    5    6 2
     9    5    8 1
    10    7   29 1
    11    8    9 am
    12    8   28 2
    13    9   10 1
    14    9   11 1
    15   10   14 1
    16   11   12 1
    17   11   13 1
    18   14   15 1
    19   14   16 1
    20   15   17 1
    21   15   18 1
    22   17   19 1
    23   19   20 1
    24   19   21 1
    25   20   22 2
    26   20   23 am
    27   23   24 1
    28   24   25 1
    29   25   26 1
    30   26   27 1
    31   29   30 1
    32   30   31 1
    33   31   32 1
    34   32   33 1
    35    3   35 1
    36    4   36 1
    37    6   37 1
    38   10   38 1
    39   10   39 1
    40   11   40 1
    41   12   41 1
    42   12   42 1
    43   12   43 1
    44   13   44 1
    45   13   45 1
    46   13   46 1
    47   14   47 1
    48   15   48 1
    49   16   49 1
    50   16   50 1
    51   16   51 1
    52   17   52 1
    53   17   53 1
    54   18   54 1
    55   19   55 1
    56   21   56 1
    57   21   57 1
    58   21   58 1
    59   23   59 1
    60   24   60 1
    61   24   61 1
    62   25   62 1
    63   25   63 1
    64   26   64 1
    65   26   65 1
    66   27   66 1
    67   27   67 1
    68   27   68 1
    69   29   69 1
    70   29   70 1
    71   30   71 1
    72   30   72 1
    73   31   73 1
    74   31   74 1
    75   33   75 1
    76   33   76 1
    77   33   77 1
    78   34   78 1
    79   34   79 1
    80   34   80 1
@<TRIPOS>PROPERTY_DATA
  Total_Score	| 12.5594
  Crash		| -3.8000
  Polar		| 8.1021
  FragIndex	| 1
  FragRMSD	| 0.551

