@<TRIPOS>MOLECULE
BindingDB_24639
 30 31 0 0 0
SMALL
NO_CHARGES


@<TRIPOS>ATOM
1    C        28.1908    5.5748   64.5364  C     
2    C        26.9125    5.2201   63.9592  C     
3    C        26.7401    3.9242   64.3828  C     
4    N        28.6458    4.4981   65.2358  N     
5    N        27.8025    3.5679   65.1248  N     
6    C        28.8674    6.8635   64.4030  C     
7    O        27.9132    7.5674   63.7359  O     
8    N        30.0934    7.0661   64.8602  N     
9    C        30.6712    8.3314   64.7645  C     
10   C        32.7681    9.4057   65.2785  C     
11   C        31.9371    8.2746   65.2387  C     
12   C        30.2102    9.6005   64.2054  C     
13   C        31.0498   10.7120   64.2125  C     
14   C        32.3388   10.6257   64.7290  C     
15   F        33.1044   11.6866   64.7442  F     
16   N        25.7367    5.6773   63.1238  N     
17   C        25.6654    6.9083   62.5842  C     
18   C        24.4960    7.4074   61.7586  C     
19   O        26.7755    7.8616   62.7745  O     
20   H        25.9417    3.2116   64.2314  H     
21   H        27.9767    2.6914   65.5407  H     
22   H        30.4276    6.3548   65.3189  H     
23   H        33.6945    9.3264   65.6815  H     
24   H        32.2967    7.3840   65.6508  H     
25   H        29.3423    9.8397   63.7729  H     
26   H        30.7007   11.5880   63.8059  H     
27   H        25.0645    5.0067   63.0216  H     
28   H        24.5382    6.7777   60.9321  H     
29   H        24.8125    8.4285   61.5357  H     
30   H        23.7188    7.3670   62.4525  H     
@<TRIPOS>BOND
     1    1    2 1
     2    1    4 2
     3    1    6 1
     4    2    3 2
     5    2   16 1
     6    3    5 1
     7    4    5 1
     8    6    7 2
     9    6    8 am
    10    8    9 1
    11    9   11 2
    12    9   12 1
    13   10   11 1
    14   10   14 2
    15   12   13 2
    16   13   14 1
    17   14   15 1
    18   16   17 am
    19   17   18 1
    20   17   19 2
    21    3   20 1
    22    5   21 1
    23    8   22 1
    24   10   23 1
    25   11   24 1
    26   12   25 1
    27   13   26 1
    28   16   27 1
    29   18   28 1
    30   18   29 1
    31   18   30 1
@<TRIPOS>PROPERTY_DATA
  Total_Score	| 4.1799
  Crash		| -0.6395
  Polar		| 2.7050
  FragIndex	| 1
  FragRMSD	| 1.169

