@<TRIPOS>MOLECULE
BindingDB_24651
 43 45 0 0 0
SMALL
NO_CHARGES


@<TRIPOS>ATOM
1    C        28.2614    5.5707   64.5463  C     
2    C        27.1122    5.1868   63.8441  C     
3    C        26.8953    3.8548   64.1894  C     
4    N        28.6473    4.4927   65.2733  N     
5    N        27.8435    3.5001   65.0606  N     
6    C        28.9138    6.8070   64.5320  C     
7    O        28.4016    7.7643   63.9676  O     
8    N        26.4020    5.9699   62.9781  N     
9    C        25.1666    5.7905   62.5300  C     
10   O        24.4751    4.8454   62.8988  O     
11   C        24.5807    6.7655   61.7296  C     
12   C        24.7116    8.3860   59.8854  C     
13   C        23.4126    8.8384   60.1771  C     
14   C        22.6879    8.2550   61.2324  C     
15   C        25.2948    7.3599   60.6527  C     
16   C        23.2614    7.2202   61.9946  C     
17   F        26.4984    6.9658   60.3251  F     
18   F        22.5551    6.7494   62.9922  F     
19   C        32.7003    9.7110   64.4559  C     
20   C        31.5089    8.2324   66.7140  C     
21   C        31.8612    8.4291   64.1984  C     
22   C        30.8078    8.2054   65.3217  C     
23   N        30.0767    6.9697   65.1643  N     
24   C        32.3333    9.5327   66.9081  C     
25   N        33.3088    9.7190   65.8103  N     
26   F        22.8939    9.8134   59.4847  F     
27   H        26.1738    3.2331   63.8265  H     
28   H        27.9145    2.6092   65.4529  H     
29   H        26.8342    6.7958   62.7053  H     
30   H        25.2348    8.8035   59.1089  H     
31   H        21.7514    8.6002   61.4629  H     
32   H        33.5018    9.7816   63.7141  H     
33   H        32.0583   10.5928   64.3524  H     
34   H        30.7563    8.1655   67.5049  H     
35   H        32.1710    7.3673   66.8059  H     
36   H        31.3629    8.5127   63.2286  H     
37   H        32.5352    7.5694   64.1584  H     
38   H        30.1042    9.0418   65.2957  H     
39   H        30.4628    6.1847   65.5853  H     
40   H        31.6644   10.3967   66.9557  H     
41   H        32.8791    9.4781   67.8525  H     
42   H        34.0044    8.9737   65.8792  H     
43   H        33.7855   10.6139   65.9474  H     
@<TRIPOS>BOND
     1    1    2 1
     2    1    4 2
     3    1    6 1
     4    2    3 2
     5    2    8 1
     6    3    5 1
     7    4    5 1
     8    6    7 2
     9    6   23 am
    10    8    9 am
    11    9   10 2
    12    9   11 1
    13   11   15 2
    14   11   16 1
    15   12   13 2
    16   12   15 1
    17   13   14 1
    18   13   26 1
    19   14   16 2
    20   15   17 1
    21   16   18 1
    22   19   21 1
    23   19   25 1
    24   20   22 1
    25   20   24 1
    26   21   22 1
    27   22   23 1
    28   24   25 1
    29    3   27 1
    30    5   28 1
    31    8   29 1
    32   12   30 1
    33   14   31 1
    34   19   32 1
    35   19   33 1
    36   20   34 1
    37   20   35 1
    38   21   36 1
    39   21   37 1
    40   22   38 1
    41   23   39 1
    42   24   40 1
    43   24   41 1
    44   25   42 1
    45   25   43 1
@<TRIPOS>PROPERTY_DATA
  Total_Score	| 7.7485
  Crash		| -1.5668
  Polar		| 4.0895
  FragIndex	| 1
  FragRMSD	| 0.760

