@<TRIPOS>MOLECULE
BindingDB_24648
 46 48 0 0 0
SMALL
NO_CHARGES


@<TRIPOS>ATOM
1    C        28.2251    5.5621   64.4117  C     
2    C        27.0276    5.1814   63.7986  C     
3    C        26.7745    3.8938   64.2712  C     
4    N        28.6229    4.5196   65.1745  N     
5    N        27.7744    3.5483   65.0850  N     
6    C        28.8994    6.7779   64.3101  C     
7    O        28.4680    7.6473   63.5592  O     
8    N        26.3030    5.9655   62.9534  N     
9    C        25.1506    5.7322   62.3439  C     
10   O        24.5522    4.6716   62.4848  O     
11   C        24.5525    6.7675   61.6416  C     
12   C        24.6294    8.5211   59.9233  C     
13   C        23.3312    8.9425   60.2767  C     
14   C        22.6511    8.2872   61.3154  C     
15   C        25.2355    7.4424   60.5929  C     
16   C        23.2450    7.2071   61.9971  C     
17   F        26.4298    7.0833   60.1931  F     
18   F        22.5805    6.6689   62.9921  F     
19   C        31.9525    9.9023   66.6328  C     
20   C        33.1054    9.9758   65.5927  C     
21   C        32.5872    9.6982   64.1568  C     
22   C        31.8146    8.3552   64.0595  C     
23   C        31.1923    8.5521   66.5341  C     
24   C        30.6595    8.2952   65.0994  C     
25   N        29.9715    7.0249   65.0492  N     
26   N        33.7814   11.2757   65.6487  N     
27   H        25.9787    3.3038   64.0580  H     
28   H        27.8457    2.6833   65.5397  H     
29   H        26.6720    6.8452   62.8024  H     
30   H        25.1126    9.0036   59.1679  H     
31   H        22.8923    9.7282   59.7907  H     
32   H        21.7218    8.6113   61.5966  H     
33   H        32.3611   10.0025   67.6420  H     
34   H        31.2551   10.7288   66.4775  H     
35   H        33.8486    9.2234   65.8550  H     
36   H        31.9375   10.5228   63.8423  H     
37   H        33.4402    9.6712   63.4757  H     
38   H        31.4150    8.2591   63.0425  H     
39   H        32.5038    7.5242   64.2352  H     
40   H        31.8658    7.7419   66.8284  H     
41   H        30.3561    8.5619   67.2398  H     
42   H        29.9617    9.1044   64.8711  H     
43   H        30.3166    6.3124   65.6218  H     
44   H        33.1374   12.0066   65.3460  H     
45   H        34.5889   11.2538   65.0227  H     
46   H        34.0925   11.4691   66.6039  H     
@<TRIPOS>BOND
     1    1    2 1
     2    1    4 2
     3    1    6 1
     4    2    3 2
     5    2    8 1
     6    3    5 1
     7    4    5 1
     8    6    7 2
     9    6   25 am
    10    8    9 am
    11    9   10 2
    12    9   11 1
    13   11   15 2
    14   11   16 1
    15   12   13 2
    16   12   15 1
    17   13   14 1
    18   14   16 2
    19   15   17 1
    20   16   18 1
    21   19   20 1
    22   19   23 1
    23   20   21 1
    24   20   26 1
    25   21   22 1
    26   22   24 1
    27   23   24 1
    28   24   25 1
    29    3   27 1
    30    5   28 1
    31    8   29 1
    32   12   30 1
    33   13   31 1
    34   14   32 1
    35   19   33 1
    36   19   34 1
    37   20   35 1
    38   21   36 1
    39   21   37 1
    40   22   38 1
    41   22   39 1
    42   23   40 1
    43   23   41 1
    44   24   42 1
    45   25   43 1
    46   26   44 1
    47   26   45 1
    48   26   46 1
@<TRIPOS>PROPERTY_DATA
  Total_Score	| 7.5242
  Crash		| -1.6022
  Polar		| 2.8978
  FragIndex	| 1
  FragRMSD	| 0.755

