@<TRIPOS>MOLECULE
BindingDB_24649
 43 45 0 0 0
SMALL
NO_CHARGES


@<TRIPOS>ATOM
1    C        28.2855    5.6323   64.5280  C     
2    C        27.1033    5.2898   63.8612  C     
3    C        26.9072    3.9388   64.1372  C     
4    N        28.7200    4.5182   65.1543  N     
5    N        27.9093    3.5357   64.9165  N     
6    C        28.9644    6.8471   64.5278  C     
7    O        28.5615    7.7698   63.8280  O     
8    N        26.3518    6.1354   63.0949  N     
9    C        25.2333    5.8927   62.4228  C     
10   O        24.7034    4.7823   62.4284  O     
11   C        24.6034    6.9166   61.7192  C     
12   C        24.6340    8.6667   59.9884  C     
13   C        23.3052    9.0053   60.2816  C     
14   C        22.6191    8.3004   61.2800  C     
15   C        25.2782    7.6346   60.6883  C     
16   C        23.2545    7.2770   62.0014  C     
17   F        26.4975    7.3339   60.3249  F     
18   F        22.5697    6.6937   62.9565  F     
19   C        32.7341    9.6773   64.4450  C     
20   C        32.3465    9.6031   66.9030  C     
21   C        31.4951    8.3145   66.7580  C     
22   C        31.8607    8.4109   64.2339  C     
23   C        30.8056    8.2482   65.3706  C     
24   N        30.0562    7.0216   65.2583  N     
25   N        33.3262    9.7375   65.8019  N     
26   H        26.1650    3.3255   63.7975  H     
27   H        28.0158    2.6239   65.2274  H     
28   H        26.6686    7.0484   63.0507  H     
29   H        25.1173    9.1790   59.2488  H     
30   H        22.8426    9.7600   59.7701  H     
31   H        21.6501    8.5439   61.4699  H     
32   H        33.5506    9.6832   63.7254  H     
33   H        32.1368   10.5755   64.2797  H     
34   H        31.7001   10.4860   66.9291  H     
35   H        32.8968    9.5533   67.8445  H     
36   H        32.1436    7.4430   66.8907  H     
37   H        30.7339    8.2942   67.5388  H     
38   H        31.3677    8.4760   63.2571  H     
39   H        32.5064    7.5276   64.2123  H     
40   H        30.1070    9.0864   65.3101  H     
41   H        30.3212    6.2821   65.8323  H     
42   H        34.0154    8.9886   65.9144  H     
43   H        33.8113   10.6320   65.9082  H     
@<TRIPOS>BOND
     1    1    2 1
     2    1    4 2
     3    1    6 1
     4    2    3 2
     5    2    8 1
     6    3    5 1
     7    4    5 1
     8    6    7 2
     9    6   24 am
    10    8    9 am
    11    9   10 2
    12    9   11 1
    13   11   15 2
    14   11   16 1
    15   12   13 2
    16   12   15 1
    17   13   14 1
    18   14   16 2
    19   15   17 1
    20   16   18 1
    21   19   22 1
    22   19   25 1
    23   20   21 1
    24   20   25 1
    25   21   23 1
    26   22   23 1
    27   23   24 1
    28    3   26 1
    29    5   27 1
    30    8   28 1
    31   12   29 1
    32   13   30 1
    33   14   31 1
    34   19   32 1
    35   19   33 1
    36   20   34 1
    37   20   35 1
    38   21   36 1
    39   21   37 1
    40   22   38 1
    41   22   39 1
    42   23   40 1
    43   24   41 1
    44   25   42 1
    45   25   43 1
@<TRIPOS>PROPERTY_DATA
  Total_Score	| 7.6322
  Crash		| -1.4765
  Polar		| 3.8562
  FragIndex	| 1
  FragRMSD	| 0.785

