@<TRIPOS>MOLECULE
BindingDB_24646
 43 45 0 0 0
SMALL
NO_CHARGES


@<TRIPOS>ATOM
1    C        28.2532    5.5286   64.5186  C     
2    C        27.0022    5.2294   63.9455  C     
3    C        26.7045    3.9377   64.3803  C     
4    N        28.6216    4.4526   65.2383  N     
5    N        27.7094    3.5320   65.1574  N     
6    C        29.0398    6.6625   64.3388  C     
7    O        28.6570    7.6122   63.6452  O     
8    N        30.2702    6.6823   64.8273  N     
9    N        26.3163    6.0324   63.0921  N     
10   C        25.0798    5.8751   62.6135  C     
11   O        24.3752    4.9258   62.9621  O     
12   C        24.5301    6.8535   61.7892  C     
13   C        22.6696    8.3590   61.2178  C     
14   C        23.4228    8.9087   60.1743  C     
15   C        24.7206    8.4301   59.9059  C     
16   C        23.2096    7.3236   62.0117  C     
17   C        25.2745    7.4134   60.7109  C     
18   F        22.4538    6.8519   62.9773  F     
19   F        26.4703    6.9783   60.3832  F     
20   C        31.4163    7.4968   64.4950  C     
21   C        31.4448    9.1761   66.4527  C     
22   C        31.3610   10.3767   65.4699  C     
23   C        30.6755    9.9842   64.1366  C     
24   C        31.2773    8.7043   63.5040  C     
25   C        32.1487    7.9626   65.7796  C     
26   H        25.8914    3.3649   64.1386  H     
27   H        27.7499    2.6562   65.5722  H     
28   H        30.4864    5.9676   65.4549  H     
29   H        26.7695    6.8499   62.8311  H     
30   H        21.7344    8.7086   61.4176  H     
31   H        23.0315    9.6615   59.6061  H     
32   H        25.2543    8.8153   59.1276  H     
33   H        32.1129    6.8122   64.0078  H     
34   H        32.0062    9.4831   67.3432  H     
35   H        30.4404    8.8843   66.7782  H     
36   H        30.8011   11.1929   65.9453  H     
37   H        32.3739   10.7583   65.2702  H     
38   H        29.6034    9.8163   64.3170  H     
39   H        30.7676   10.8298   63.4409  H     
40   H        32.2774    8.9764   63.1311  H     
41   H        30.6656    8.3986   62.6565  H     
42   H        32.1979    7.1391   66.5055  H     
43   H        33.1773    8.2566   65.5555  H     
@<TRIPOS>BOND
     1    1    2 1
     2    1    4 2
     3    1    6 1
     4    2    3 2
     5    2    9 1
     6    3    5 1
     7    4    5 1
     8    6    7 2
     9    6    8 am
    10    8   20 1
    11    9   10 am
    12   10   11 2
    13   10   12 1
    14   12   16 2
    15   12   17 1
    16   13   14 2
    17   13   16 1
    18   14   15 1
    19   15   17 2
    20   16   18 1
    21   17   19 1
    22   20   24 1
    23   20   25 1
    24   21   22 1
    25   21   25 1
    26   22   23 1
    27   23   24 1
    28    3   26 1
    29    5   27 1
    30    8   28 1
    31    9   29 1
    32   13   30 1
    33   14   31 1
    34   15   32 1
    35   20   33 1
    36   21   34 1
    37   21   35 1
    38   22   36 1
    39   22   37 1
    40   23   38 1
    41   23   39 1
    42   24   40 1
    43   24   41 1
    44   25   42 1
    45   25   43 1
@<TRIPOS>PROPERTY_DATA
  Total_Score	| 7.2620
  Crash		| -1.9462
  Polar		| 3.2120
  FragIndex	| 1
  FragRMSD	| 0.609

