@<TRIPOS>MOLECULE
BindingDB_24641
 40 42 0 0 0
SMALL
NO_CHARGES


@<TRIPOS>ATOM
1    C        28.0439    5.5551   64.6137  C     
2    C        26.7616    5.1254   64.2338  C     
3    C        26.7325    3.7583   64.4875  C     
4    N        28.6939    4.4586   65.0653  N     
5    N        27.9233    3.4188   64.9813  N     
6    C        28.5820    6.8466   64.5290  C     
7    O        27.8342    7.7614   64.2194  O     
8    N        29.8678    7.0834   64.7793  N     
9    C        30.5923    8.2598   64.7083  C     
10   C        30.9531   10.6313   64.1340  C     
11   C        30.1401    9.4811   64.1398  C     
12   C        31.9122    8.2295   65.2214  C     
13   C        32.7314    9.3776   65.2162  C     
14   C        32.2492   10.5847   64.6778  C     
15   F        33.0060   11.6480   64.6915  F     
16   N        25.7821    5.9207   63.7112  N     
17   C        24.6318    5.5823   63.1497  C     
18   O        24.2449    4.4180   63.0794  O     
19   C        23.8134    6.6230   62.5549  C     
20   C        24.3602    7.3176   61.3492  C     
21   C        26.0062    7.6149   59.5492  C     
22   C        25.3031    8.7334   59.0795  C     
23   C        24.1196    9.1415   59.7202  C     
24   C        23.6530    8.4361   60.8433  C     
25   C        25.5354    6.9081   60.6711  C     
26   H        25.9545    3.1135   64.3545  H     
27   H        28.1535    2.5153   65.2394  H     
28   H        30.3792    6.3072   65.0736  H     
29   H        30.5960   11.5011   63.7335  H     
30   H        29.2217    9.5479   63.7109  H     
31   H        32.2980    7.3659   65.6213  H     
32   H        33.6762    9.3337   65.6100  H     
33   H        25.9757    6.8714   63.7215  H     
34   H        22.8383    6.2138   62.2801  H     
35   H        23.6416    7.3665   63.3347  H     
36   H        26.8581    7.3041   59.0759  H     
37   H        25.6450    9.2424   58.2593  H     
38   H        23.5986    9.9487   59.3644  H     
39   H        22.7883    8.7532   61.2947  H     
40   H        26.0658    6.0902   60.9773  H     
@<TRIPOS>BOND
     1    1    2 1
     2    1    4 2
     3    1    6 1
     4    2    3 2
     5    2   16 1
     6    3    5 1
     7    4    5 1
     8    6    7 2
     9    6    8 am
    10    8    9 1
    11    9   11 2
    12    9   12 1
    13   10   11 1
    14   10   14 2
    15   12   13 2
    16   13   14 1
    17   14   15 1
    18   16   17 am
    19   17   18 2
    20   17   19 1
    21   19   20 1
    22   20   24 2
    23   20   25 1
    24   21   22 1
    25   21   25 2
    26   22   23 2
    27   23   24 1
    28    3   26 1
    29    5   27 1
    30    8   28 1
    31   10   29 1
    32   11   30 1
    33   12   31 1
    34   13   32 1
    35   16   33 1
    36   19   34 1
    37   19   35 1
    38   21   36 1
    39   22   37 1
    40   23   38 1
    41   24   39 1
    42   25   40 1
@<TRIPOS>PROPERTY_DATA
  Total_Score	| 5.7305
  Crash		| -1.1106
  Polar		| 2.1809
  FragIndex	| 1
  FragRMSD	| 1.238

