@<TRIPOS>MOLECULE
BindingDB_24647
 44 46 0 0 0
SMALL
NO_CHARGES


@<TRIPOS>ATOM
1    C        28.2870    5.5492   64.6366  C     
2    C        27.0679    5.2660   63.9629  C     
3    C        26.8223    3.8917   64.2147  C     
4    N        28.7016    4.3662   65.2268  N     
5    N        27.8344    3.4393   64.9581  N     
6    C        28.8765    6.7571   64.7183  C     
7    O        28.0831    7.8622   64.1394  O     
8    N        26.1437    5.9344   63.2690  N     
9    C        26.0694    7.0646   62.5468  C     
10   O        27.3428    7.5220   62.7599  O     
11   C        25.0861    7.7257   61.8097  C     
12   C        22.8808    7.8193   60.6692  C     
13   C        23.1668    9.0830   60.1669  C     
14   C        24.3603    9.6955   60.4532  C     
15   C        23.8003    7.1212   61.4318  C     
16   C        25.3188    9.0939   61.2372  C     
17   F        23.2950    5.9151   61.5145  F     
18   F        26.3434    9.8809   61.4741  F     
19   C        31.9888    9.8197   66.6488  C     
20   C        33.1320    9.8235   65.5974  C     
21   C        32.5992    9.5849   64.1594  C     
22   C        31.7855    8.2722   64.0700  C     
23   C        31.1613    8.5235   66.5882  C     
24   O        33.8553   11.0512   65.6403  O     
25   C        30.6933    8.2622   65.1567  C     
26   N        30.0451    6.9769   65.1475  N     
27   H        26.0356    3.3345   63.9017  H     
28   H        27.9390    2.5407   65.2874  H     
29   H        25.3514    5.3342   63.3478  H     
30   H        22.0266    7.3682   60.4906  H     
31   H        22.4798    9.5215   59.5739  H     
32   H        24.5618   10.6200   60.0791  H     
33   H        32.4162    9.9058   67.6483  H     
34   H        31.3434   10.6854   66.4757  H     
35   H        33.8331    9.0245   65.8401  H     
36   H        31.9817   10.4296   63.8490  H     
37   H        33.4343    9.5362   63.4625  H     
38   H        31.3254    8.1864   63.0744  H     
39   H        32.4303    7.4075   64.2203  H     
40   H        31.7672    7.6768   66.9108  H     
41   H        30.2907    8.6103   67.2474  H     
42   H        34.2098   11.0985   66.5528  H     
43   H        30.0290    9.1184   64.8888  H     
44   H        30.5475    6.1658   65.5466  H     
@<TRIPOS>BOND
     1    1    2 1
     2    1    4 2
     3    1    6 1
     4    2    3 2
     5    2    8 1
     6    3    5 1
     7    4    5 1
     8    6    7 2
     9    6   26 am
    10    8    9 am
    11    9   10 2
    12    9   11 1
    13   11   15 2
    14   11   16 1
    15   12   13 2
    16   12   15 1
    17   13   14 1
    18   14   16 2
    19   15   17 1
    20   16   18 1
    21   19   20 1
    22   19   23 1
    23   20   21 1
    24   20   24 1
    25   21   22 1
    26   22   25 1
    27   23   25 1
    28   25   26 1
    29    3   27 1
    30    5   28 1
    31    8   29 1
    32   12   30 1
    33   13   31 1
    34   14   32 1
    35   19   33 1
    36   19   34 1
    37   20   35 1
    38   21   36 1
    39   21   37 1
    40   22   38 1
    41   22   39 1
    42   23   40 1
    43   23   41 1
    44   24   42 1
    45   25   43 1
    46   26   44 1
@<TRIPOS>PROPERTY_DATA
  Total_Score	| 7.4782
  Crash		| -1.2562
  Polar		| 3.3459
  FragIndex	| 1
  FragRMSD	| 1.470

