@<TRIPOS>MOLECULE
BindingDB_24644
 37 39 0 0 0
SMALL
NO_CHARGES


@<TRIPOS>ATOM
1    C        28.0146    5.5110   64.5615  C     
2    C        26.8061    5.0958   63.9800  C     
3    C        26.6626    3.7666   64.3415  C     
4    N        28.5417    4.4321   65.1807  N     
5    N        27.7461    3.4191   65.0419  N     
6    C        28.5722    6.7819   64.5812  C     
7    O        27.8184    7.7306   64.4111  O     
8    N        29.8580    6.9641   64.8772  N     
9    C        30.6097    8.1191   64.8565  C     
10   C        31.1435   10.4034   64.1072  C     
11   C        30.2947    9.2801   64.1032  C     
12   C        31.8226    8.1145   65.5847  C     
13   C        32.6734    9.2370   65.5921  C     
14   C        32.3340   10.3853   64.8545  C     
15   F        33.1276   11.4225   64.8494  F     
16   N        25.8846    5.7351   63.2005  N     
17   C        26.1107    6.5931   62.2077  C     
18   O        27.2758    6.7530   61.8610  O     
19   C        25.0810    7.2784   61.5219  C     
20   C        24.3425    8.6947   59.6294  C     
21   C        23.0603    8.8041   60.1832  C     
22   C        22.7677    8.1506   61.3878  C     
23   C        25.3347    7.9337   60.2766  C     
24   C        23.7608    7.4041   62.0549  C     
25   F        26.4871    7.8662   59.6578  F     
26   F        23.4033    6.8968   63.2063  F     
27   H        25.8919    3.1445   64.0893  H     
28   H        27.9026    2.5285   65.3956  H     
29   H        30.3373    6.1652   65.1593  H     
30   H        30.8990   11.2270   63.5519  H     
31   H        29.4636    9.3135   63.5131  H     
32   H        32.0964    7.2879   66.1234  H     
33   H        33.5416    9.2131   66.1314  H     
34   H        24.9691    5.4452   63.3244  H     
35   H        24.5466    9.1653   58.7434  H     
36   H        22.3439    9.3600   59.7107  H     
37   H        21.8320    8.2479   61.7921  H     
@<TRIPOS>BOND
     1    1    2 1
     2    1    4 2
     3    1    6 1
     4    2    3 2
     5    2   16 1
     6    3    5 1
     7    4    5 1
     8    6    7 2
     9    6    8 am
    10    8    9 1
    11    9   11 2
    12    9   12 1
    13   10   11 1
    14   10   14 2
    15   12   13 2
    16   13   14 1
    17   14   15 1
    18   16   17 am
    19   17   18 2
    20   17   19 1
    21   19   23 2
    22   19   24 1
    23   20   21 2
    24   20   23 1
    25   21   22 1
    26   22   24 2
    27   23   25 1
    28   24   26 1
    29    3   27 1
    30    5   28 1
    31    8   29 1
    32   10   30 1
    33   11   31 1
    34   12   32 1
    35   13   33 1
    36   16   34 1
    37   20   35 1
    38   21   36 1
    39   22   37 1
@<TRIPOS>PROPERTY_DATA
  Total_Score	| 6.1181
  Crash		| -1.1309
  Polar		| 2.7856
  FragIndex	| 1
  FragRMSD	| 1.124

