@<TRIPOS>MOLECULE
BindingDB_24645
 37 39 0 0 0
SMALL
NO_CHARGES


@<TRIPOS>ATOM
1    C        28.1535    5.5001   64.6569  C     
2    C        27.0326    5.1306   63.9033  C     
3    C        26.8328    3.7846   64.1814  C     
4    N        28.5643    4.3952   65.3180  N     
5    N        27.7869    3.4029   65.0335  N     
6    C        28.7464    6.7427   64.7739  C     
7    O        28.1474    7.7217   64.3404  O     
8    N        29.9439    6.8640   65.3421  N     
9    N        26.3423    5.9407   63.0573  N     
10   C        25.1788    5.7380   62.4598  C     
11   O        24.5153    4.7183   62.6272  O     
12   C        24.6326    6.7666   61.7034  C     
13   C        22.7906    8.3180   61.2431  C     
14   C        23.5539    8.9436   60.2423  C     
15   C        24.8591    8.4977   59.9740  C     
16   C        23.3207    7.2358   61.9671  C     
17   C        25.4018    7.4189   60.6999  C     
18   F        22.5888    6.7295   62.9246  F     
19   F        26.6219    7.0442   60.4095  F     
20   C        30.6968    8.0553   65.6212  C     
21   C        30.6658    9.1867   64.5539  C     
22   C        31.9402    9.8574   64.0261  C     
23   C        31.2105    8.8227   63.1760  C     
24   H        26.1190    3.1728   63.7955  H     
25   H        27.8782    2.4929   65.3696  H     
26   H        30.3626    6.0353   65.6301  H     
27   H        26.7489    6.8041   62.8967  H     
28   H        21.8610    8.6679   61.4629  H     
29   H        23.1678    9.7322   59.7203  H     
30   H        25.4194    8.9593   59.2543  H     
31   H        30.3474    8.4698   66.5671  H     
32   H        31.7367    7.7344   65.7575  H     
33   H        29.7545    9.7920   64.4854  H     
34   H        31.8510   10.8880   63.6532  H     
35   H        32.9044    9.5156   64.4228  H     
36   H        31.7196    7.8643   63.0815  H     
37   H        30.6312    9.2006   62.3351  H     
@<TRIPOS>BOND
     1    1    2 1
     2    1    4 2
     3    1    6 1
     4    2    3 2
     5    2    9 1
     6    3    5 1
     7    4    5 1
     8    6    7 2
     9    6    8 am
    10    8   20 1
    11    9   10 am
    12   10   11 2
    13   10   12 1
    14   12   16 2
    15   12   17 1
    16   13   14 2
    17   13   16 1
    18   14   15 1
    19   15   17 2
    20   16   18 1
    21   17   19 1
    22   20   21 1
    23   21   22 1
    24   21   23 1
    25   22   23 1
    26    3   24 1
    27    5   25 1
    28    8   26 1
    29    9   27 1
    30   13   28 1
    31   14   29 1
    32   15   30 1
    33   20   31 1
    34   20   32 1
    35   21   33 1
    36   22   34 1
    37   22   35 1
    38   23   36 1
    39   23   37 1
@<TRIPOS>PROPERTY_DATA
  Total_Score	| 7.0335
  Crash		| -1.0383
  Polar		| 3.3355
  FragIndex	| 1
  FragRMSD	| 0.790

