@<TRIPOS>MOLECULE
BindingDB_24638
 25 26 0 0 0
SMALL
NO_CHARGES


@<TRIPOS>ATOM
1    C        28.5703    5.8289   64.7466  C     
2    C        27.6404    5.6668   63.7167  C     
3    C        27.0362    4.4406   63.9402  C     
4    N        28.4838    4.7235   65.5193  N     
5    N        27.5924    3.9166   65.0400  N     
6    C        29.4432    6.8722   65.0135  C     
7    N        27.3199    6.4970   62.7142  N     
8    O        29.9028    6.9388   66.1454  O     
9    N        29.7701    7.7784   64.0973  N     
10   C        30.6379    8.8335   64.2185  C     
11   C        30.9981   11.2460   63.9713  C     
12   C        30.1549   10.1212   63.9000  C     
13   C        31.9991    8.6941   64.5845  C     
14   C        32.8445    9.8178   64.6537  C     
15   C        32.3443   11.0964   64.3462  C     
16   F        33.1281   12.1378   64.4054  F     
17   H        26.3021    4.0066   63.3768  H     
18   H        27.3587    3.0542   65.4258  H     
19   H        26.6343    6.2430   62.0757  H     
20   H        27.7583    7.3556   62.6313  H     
21   H        29.2928    7.7230   63.2552  H     
22   H        30.6282   12.1717   63.7478  H     
23   H        29.1779   10.2489   63.6252  H     
24   H        32.3913    7.7701   64.7777  H     
25   H        33.8246    9.7003   64.9193  H     
@<TRIPOS>BOND
     1    1    2 1
     2    1    4 2
     3    1    6 1
     4    2    3 2
     5    2    7 1
     6    3    5 1
     7    4    5 1
     8    6    8 2
     9    6    9 am
    10    9   10 1
    11   10   12 2
    12   10   13 1
    13   11   12 1
    14   11   15 2
    15   13   14 2
    16   14   15 1
    17   15   16 1
    18    3   17 1
    19    5   18 1
    20    7   19 1
    21    7   20 1
    22    9   21 1
    23   11   22 1
    24   12   23 1
    25   13   24 1
    26   14   25 1
@<TRIPOS>PROPERTY_DATA
  Total_Score	| 2.8672
  Crash		| -0.3275
  Polar		| 1.3229
  FragIndex	| 1
  FragRMSD	| 1.107

