@<TRIPOS>MOLECULE
BindingDB_24642
 43 45 0 0 0
SMALL
NO_CHARGES


@<TRIPOS>ATOM
1    C        28.3616    5.6415   64.4743  C     
2    C        27.1444    5.2955   63.8682  C     
3    C        26.8541    4.0106   64.3278  C     
4    N        28.7385    4.5786   65.2186  N     
5    N        27.8550    3.6371   65.1251  N     
6    C        29.1092    6.8085   64.3415  C     
7    O        28.6912    7.7113   63.6255  O     
8    N        30.2359    6.9844   65.0279  N     
9    C        31.0092    8.1050   65.0298  C     
10   C        31.7539   10.1371   66.1809  C     
11   C        30.9689    8.9660   66.1474  C     
12   C        31.8488    8.4349   63.9432  C     
13   C        32.6465    9.5941   63.9861  C     
14   C        32.6015   10.4459   65.1015  C     
15   F        33.3416   11.5237   65.1283  F     
16   N        26.4516    6.0800   62.9898  N     
17   C        25.4639    5.7392   62.1675  C     
18   O        25.0044    4.6012   62.1629  O     
19   C        24.8417    6.7093   61.2630  C     
20   C        24.9827    8.9148   59.9268  C     
21   C        23.6252    9.3788   60.5162  C     
22   C        22.7278    8.1886   60.9435  C     
23   C        23.4660    7.1620   61.8446  C     
24   C        25.7242    7.9436   60.8930  C     
25   H        26.0538    3.4241   64.1012  H     
26   H        27.9115    2.7615   65.5424  H     
27   H        30.5010    6.2816   65.6469  H     
28   H        31.7078   10.7554   66.9896  H     
29   H        30.3656    8.7474   66.9462  H     
30   H        31.8873    7.8243   63.1260  H     
31   H        33.2612    9.8109   63.1993  H     
32   H        26.7514    6.9990   62.9373  H     
33   H        24.6480    6.1891   60.3162  H     
34   H        24.8100    8.4121   58.9730  H     
35   H        25.6106    9.7884   59.7356  H     
36   H        23.8133   10.0200   61.3824  H     
37   H        23.0950    9.9754   59.7689  H     
38   H        21.8573    8.5708   61.4855  H     
39   H        22.3606    7.6800   60.0468  H     
40   H        22.8172    6.2894   61.9683  H     
41   H        23.6185    7.5979   62.8357  H     
42   H        26.0023    8.5025   61.7888  H     
43   H        26.6416    7.6069   60.4027  H     
@<TRIPOS>BOND
     1    1    2 1
     2    1    4 2
     3    1    6 1
     4    2    3 2
     5    2   16 1
     6    3    5 1
     7    4    5 1
     8    6    7 2
     9    6    8 am
    10    8    9 1
    11    9   11 2
    12    9   12 1
    13   10   11 1
    14   10   14 2
    15   12   13 2
    16   13   14 1
    17   14   15 1
    18   16   17 am
    19   17   18 2
    20   17   19 1
    21   19   23 1
    22   19   24 1
    23   20   21 1
    24   20   24 1
    25   21   22 1
    26   22   23 1
    27    3   25 1
    28    5   26 1
    29    8   27 1
    30   10   28 1
    31   11   29 1
    32   12   30 1
    33   13   31 1
    34   16   32 1
    35   19   33 1
    36   20   34 1
    37   20   35 1
    38   21   36 1
    39   21   37 1
    40   22   38 1
    41   22   39 1
    42   23   40 1
    43   23   41 1
    44   24   42 1
    45   24   43 1
@<TRIPOS>PROPERTY_DATA
  Total_Score	| 6.2455
  Crash		| -1.8894
  Polar		| 2.9152
  FragIndex	| 1
  FragRMSD	| 1.117

