@<TRIPOS>MOLECULE
BindingDB_24643
 37 39 0 0 0
SMALL
NO_CHARGES


@<TRIPOS>ATOM
1    C        28.1197    5.6548   64.4779  C     
2    C        26.8221    5.3343   64.0521  C     
3    C        26.6008    4.0288   64.4580  C     
4    N        28.6049    4.5495   65.0880  N     
5    N        27.7149    3.6061   65.0629  N     
6    C        28.7966    6.8653   64.3533  C     
7    O        28.2005    7.8080   63.8486  O     
8    N        30.0234    7.0164   64.8510  N     
9    C        30.8385    8.1279   64.8761  C     
10   C        32.6801    9.2829   66.0308  C     
11   C        31.8115    8.1812   65.9010  C     
12   C        30.7973    9.2069   63.9555  C     
13   C        31.6609   10.3112   64.0845  C     
14   C        32.6033   10.3541   65.1256  C     
15   F        33.4081   11.3764   65.2405  F     
16   N        25.9030    6.0718   63.3701  N     
17   C        26.0500    6.5252   62.1298  C     
18   O        27.0795    6.2576   61.5198  O     
19   C        25.0851    7.3256   61.5074  C     
20   C        22.7768    8.1602   61.3008  C     
21   C        23.1507    8.9725   60.2171  C     
22   C        24.4836    8.9744   59.7742  C     
23   C        25.4372    8.1551   60.4070  C     
24   C        23.7330    7.3482   61.9423  C     
25   H        25.7545    3.4757   64.3059  H     
26   H        27.8299    2.7118   65.4265  H     
27   H        30.3729    6.2417   65.3237  H     
28   H        33.3676    9.3022   66.7885  H     
29   H        31.8891    7.4160   66.5777  H     
30   H        30.1546    9.2004   63.1649  H     
31   H        31.6054   11.0814   63.4134  H     
32   H        25.0630    6.2395   63.8220  H     
33   H        21.8075    8.1660   61.6252  H     
34   H        22.4574    9.5656   59.7553  H     
35   H        24.7619    9.5767   58.9941  H     
36   H        26.4039    8.1935   60.0669  H     
37   H        23.4212    6.7591   62.7187  H     
@<TRIPOS>BOND
     1    1    2 1
     2    1    4 2
     3    1    6 1
     4    2    3 2
     5    2   16 1
     6    3    5 1
     7    4    5 1
     8    6    7 2
     9    6    8 am
    10    8    9 1
    11    9   11 2
    12    9   12 1
    13   10   11 1
    14   10   14 2
    15   12   13 2
    16   13   14 1
    17   14   15 1
    18   16   17 am
    19   17   18 2
    20   17   19 1
    21   19   23 1
    22   19   24 2
    23   20   21 2
    24   20   24 1
    25   21   22 1
    26   22   23 2
    27    3   25 1
    28    5   26 1
    29    8   27 1
    30   10   28 1
    31   11   29 1
    32   12   30 1
    33   13   31 1
    34   16   32 1
    35   20   33 1
    36   21   34 1
    37   22   35 1
    38   23   36 1
    39   24   37 1
@<TRIPOS>PROPERTY_DATA
  Total_Score	| 6.0357
  Crash		| -0.8276
  Polar		| 2.7117
  FragIndex	| 1
  FragRMSD	| 1.092

