@<TRIPOS>MOLECULE
BindingDB_24650
 43 45 0 0 0
SMALL
NO_CHARGES


@<TRIPOS>ATOM
1    C        27.9950    5.4282   64.5886  C     
2    C        26.7471    5.0567   64.0651  C     
3    C        26.5806    3.7281   64.4198  C     
4    N        28.5129    4.3321   65.1819  N     
5    N        27.6832    3.3449   65.0702  N     
6    C        28.6025    6.6740   64.6072  C     
7    O        27.9211    7.6610   64.3606  O     
8    N        25.8151    5.7357   63.3337  N     
9    C        26.0349    6.5077   62.2721  C     
10   O        27.1866    6.5462   61.8586  O     
11   C        25.0274    7.2359   61.5930  C     
12   C        24.3565    8.7517   59.7496  C     
13   C        23.0587    8.8433   60.2664  C     
14   C        22.7240    8.1309   61.4253  C     
15   C        25.3226    7.9523   60.3899  C     
16   C        23.6905    7.3444   62.0864  C     
17   F        26.4937    7.9169   59.8042  F     
18   F        23.2837    6.7729   63.1895  F     
19   C        32.7890    9.1307   65.8494  C     
20   C        30.6790    8.8685   63.8004  C     
21   C        32.0207    7.7941   65.6676  C     
22   C        30.5881    8.0472   65.1206  C     
23   N        29.8762    6.8070   64.9703  N     
24   C        32.7881    9.9627   64.5423  C     
25   N        31.4191   10.1341   64.0087  N     
26   H        25.7810    3.1313   64.1988  H     
27   H        27.8306    2.4489   65.4112  H     
28   H        24.8944    5.5366   63.5530  H     
29   H        24.5918    9.2661   58.8963  H     
30   H        22.3613    9.4278   59.8000  H     
31   H        21.7758    8.2135   61.8018  H     
32   H        32.3147    9.7139   66.6441  H     
33   H        33.8191    8.9302   66.1498  H     
34   H        31.1699    8.2780   63.0210  H     
35   H        29.6825    9.1315   63.4450  H     
36   H        32.5668    7.1497   64.9739  H     
37   H        31.9662    7.2797   66.6314  H     
38   H        30.0637    8.6454   65.8676  H     
39   H        30.3544    5.9977   65.2178  H     
40   H        33.2111   10.9499   64.7392  H     
41   H        33.4096    9.4765   63.7877  H     
42   H        31.4842   10.6168   63.1108  H     
43   H        30.8869   10.7181   64.6580  H     
@<TRIPOS>BOND
     1    1    2 1
     2    1    4 2
     3    1    6 1
     4    2    3 2
     5    2    8 1
     6    3    5 1
     7    4    5 1
     8    6    7 2
     9    6   23 am
    10    8    9 am
    11    9   10 2
    12    9   11 1
    13   11   15 2
    14   11   16 1
    15   12   13 2
    16   12   15 1
    17   13   14 1
    18   14   16 2
    19   15   17 1
    20   16   18 1
    21   19   21 1
    22   19   24 1
    23   20   22 1
    24   20   25 1
    25   21   22 1
    26   22   23 1
    27   24   25 1
    28    3   26 1
    29    5   27 1
    30    8   28 1
    31   12   29 1
    32   13   30 1
    33   14   31 1
    34   19   32 1
    35   19   33 1
    36   20   34 1
    37   20   35 1
    38   21   36 1
    39   21   37 1
    40   22   38 1
    41   23   39 1
    42   24   40 1
    43   24   41 1
    44   25   42 1
    45   25   43 1
@<TRIPOS>PROPERTY_DATA
  Total_Score	| 8.4230
  Crash		| -1.9363
  Polar		| 4.5636
  FragIndex	| 1
  FragRMSD	| 1.136

