@<TRIPOS>MOLECULE
BindingDB_24640
 31 32 0 0 0
SMALL
NO_CHARGES


@<TRIPOS>ATOM
1    C        28.1780    5.5675   64.5055  C     
2    C        26.8617    5.2415   63.9560  C     
3    C        26.7131    3.8998   64.4080  C     
4    N        28.6392    4.5108   65.1744  N     
5    N        27.7917    3.5490   65.1152  N     
6    C        28.8354    6.8000   64.3077  C     
7    O        28.0975    7.4884   63.4627  O     
8    N        30.0544    7.1013   64.8543  N     
9    C        30.6344    8.3236   64.7263  C     
10   C        30.9962   10.7063   64.1774  C     
11   C        30.1767    9.5793   64.2091  C     
12   C        31.9521    8.2690   65.2381  C     
13   C        32.7476    9.4091   65.2322  C     
14   C        32.2918   10.6246   64.7022  C     
15   F        33.0585   11.6731   64.7078  F     
16   N        25.7500    5.6616   63.1940  N     
17   C        25.6347    6.9417   62.5690  C     
18   O        26.7432    7.7915   62.9052  O     
19   C        24.5343    7.4223   61.7719  C     
20   O        24.8203    8.7320   61.2117  O     
21   H        25.9280    3.2452   64.2560  H     
22   H        27.9591    2.6814   65.5217  H     
23   H        30.4019    6.3753   65.3393  H     
24   H        30.6344   11.5817   63.8015  H     
25   H        29.2448    9.7694   63.8379  H     
26   H        32.2949    7.3873   65.6113  H     
27   H        33.6815    9.3382   65.6431  H     
28   H        25.0266    5.0348   63.0684  H     
29   H        24.4376    6.7270   60.9642  H     
30   H        23.7440    7.4232   62.5116  H     
31   H        23.9657    9.1154   61.0089  H     
@<TRIPOS>BOND
     1    1    2 1
     2    1    4 2
     3    1    6 1
     4    2    3 2
     5    2   16 1
     6    3    5 1
     7    4    5 1
     8    6    7 2
     9    6    8 am
    10    8    9 1
    11    9   11 2
    12    9   12 1
    13   10   11 1
    14   10   14 2
    15   12   13 2
    16   13   14 1
    17   14   15 1
    18   16   17 am
    19   17   18 2
    20   17   19 1
    21   19   20 1
    22    3   21 1
    23    5   22 1
    24    8   23 1
    25   10   24 1
    26   11   25 1
    27   12   26 1
    28   13   27 1
    29   16   28 1
    30   19   29 1
    31   19   30 1
    32   20   31 1
@<TRIPOS>PROPERTY_DATA
  Total_Score	| 3.8504
  Crash		| -0.6535
  Polar		| 2.6301
  FragIndex	| 1
  FragRMSD	| 1.156

