@<TRIPOS>MOLECULE
BindingDB_7232
 52 55 0 0 0
SMALL
NO_CHARGES


@<TRIPOS>ATOM
1    C       -14.4562  203.8859  111.7810  C     
2    C       -11.9403  205.0522  111.2773  C     
3    C       -12.8639  204.8843  110.2464  C     
4    C       -10.8120  205.5785  110.6647  C     
5    C       -13.5197  204.0691  112.8266  C     
6    C       -12.2801  204.6805  112.5945  C     
7    C       -13.5497  203.7742  114.1906  C     
8    N       -11.0797  205.7212  109.3522  N     
9    N       -12.2913  205.3240  109.1217  N     
10   N       -12.3903  204.2236  114.7064  N     
11   N       -11.6448  204.7630  113.7851  N     
12   C       -14.1305  204.3208  110.4783  C     
13   C       -10.4511  205.3688  114.0612  C     
14   C        -8.2086  205.2873  115.0323  C     
15   C        -7.9661  206.6257  114.6536  C     
16   C        -8.9926  207.3350  113.9873  C     
17   C       -10.2191  206.7114  113.6873  C     
18   C        -9.4468  204.6710  114.7635  C     
19   C       -14.5556  203.1880  114.9343  C     
20   O       -15.5497  202.7437  114.3702  O     
21   O        -6.7196  208.8689  115.4989  O     
22   S        -6.4409  207.3799  115.0222  S     
23   O        -5.8662  206.6378  116.3056  O     
24   N        -5.3698  207.3388  113.7250  N     
25   C        -4.8914  206.1268  113.1440  C     
26   C        -3.7229  206.3250  112.1290  C     
27   C        -4.1729  206.4922  110.6603  C     
28   C        -3.3135  207.5584  109.9156  C     
29   N       -14.4740  203.1551  116.2586  N     
30   C       -15.4751  202.6484  117.1290  C     
31   H       -15.3635  203.4539  111.9531  H     
32   H        -9.9200  205.7934  111.1135  H     
33   H       -12.7147  205.3200  108.2512  H     
34   H       -14.7981  204.2200  109.7171  H     
35   H        -7.4915  204.7543  115.5089  H     
36   H        -8.8550  208.3104  113.7079  H     
37   H       -10.9515  207.2420  113.2074  H     
38   H        -9.6045  203.7059  115.0684  H     
39   H        -5.4042  208.1123  113.1430  H     
40   H        -4.5461  205.4365  113.9157  H     
41   H        -5.7259  205.6479  112.6351  H     
42   H        -3.1188  207.2097  112.4238  H     
43   H        -3.0486  205.4519  112.1904  H     
44   H        -4.0612  205.5436  110.1275  H     
45   H        -5.2311  206.7960  110.6207  H     
46   H        -3.3492  208.5057  110.4461  H     
47   H        -3.7062  207.7027  108.9035  H     
48   H        -2.2780  207.2248  109.8389  H     
49   H       -13.6831  203.5431  116.6649  H     
50   H       -16.4520  203.0843  116.8968  H     
51   H       -15.2196  202.9200  118.1536  H     
52   H       -15.5346  201.5636  117.0476  H     
@<TRIPOS>BOND
     1    1    5 1
     2    1   12 2
     3    2    3 2
     4    2    4 1
     5    2    6 1
     6    3    9 1
     7    3   12 1
     8    4    8 2
     9    5    6 2
    10    5    7 1
    11    6   11 1
    12    7   10 2
    13    7   19 1
    14    8    9 1
    15   10   11 1
    16   11   13 1
    17   13   17 1
    18   13   18 2
    19   14   15 2
    20   14   18 1
    21   15   16 1
    22   15   22 1
    23   16   17 2
    24   19   20 2
    25   19   29 am
    26   21   22 2
    27   22   23 2
    28   22   24 1
    29   24   25 1
    30   25   26 1
    31   26   27 1
    32   27   28 1
    33   29   30 1
    34    1   31 1
    35    4   32 1
    36    9   33 1
    37   12   34 1
    38   14   35 1
    39   16   36 1
    40   17   37 1
    41   18   38 1
    42   24   39 1
    43   25   40 1
    44   25   41 1
    45   26   42 1
    46   26   43 1
    47   27   44 1
    48   27   45 1
    49   28   46 1
    50   28   47 1
    51   28   48 1
    52   29   49 1
    53   30   50 1
    54   30   51 1
    55   30   52 1
@<TRIPOS>PROPERTY_DATA
  Total_Score	| 11.8204
  Crash		| -1.3619
  Polar		| 5.5858
  FragIndex	| 1
  FragRMSD	| 0.194

