@<TRIPOS>MOLECULE
BindingDB_7189
 32 35 0 0 0
SMALL
NO_CHARGES


@<TRIPOS>ATOM
1    C       -14.4603  203.7811  111.9265  C     
2    C       -12.0463  205.1001  111.2896  C     
3    C       -12.9952  204.8328  110.2969  C     
4    C       -10.9975  205.7219  110.6308  C     
5    C       -13.4883  204.0451  112.9259  C     
6    C       -12.2992  204.7143  112.6167  C     
7    C       -13.4319  203.7783  114.2892  C     
8    N       -11.3265  205.8204  109.3275  N     
9    N       -12.4988  205.2975  109.1422  N     
10   N       -12.2595  204.2744  114.7381  N     
11   N       -11.5993  204.8274  113.7634  N     
12   C       -14.3654  203.1642  115.1016  C     
13   O       -15.4152  202.7340  114.6560  O     
14   N       -14.1728  203.0328  116.3967  N     
15   C       -14.2068  204.1826  110.5972  C     
16   C       -10.3987  205.4308  113.9363  C     
17   C        -8.9719  207.4110  113.8000  C     
18   C        -7.9128  206.6837  114.3752  C     
19   C        -8.0974  205.3374  114.7430  C     
20   C        -9.3484  204.7242  114.5485  C     
21   C       -10.2104  206.7802  113.5771  C     
22   F        -6.7591  207.2615  114.5818  F     
23   H       -15.3366  203.3109  112.1585  H     
24   H       -10.1235  206.0420  111.0493  H     
25   H       -12.9449  205.2329  108.2845  H     
26   H       -14.8375  202.5854  116.9452  H     
27   H       -13.3689  203.3795  116.8117  H     
28   H       -14.8946  204.0034  109.8629  H     
29   H        -8.8502  208.4014  113.5608  H     
30   H        -7.3358  204.8082  115.1681  H     
31   H        -9.4868  203.7541  114.8451  H     
32   H       -10.9746  207.3110  113.1585  H     
@<TRIPOS>BOND
     1    1    5 1
     2    1   15 2
     3    2    3 2
     4    2    4 1
     5    2    6 1
     6    3    9 1
     7    3   15 1
     8    4    8 2
     9    5    6 2
    10    5    7 1
    11    6   11 1
    12    7   10 2
    13    7   12 1
    14    8    9 1
    15   10   11 1
    16   11   16 1
    17   12   13 2
    18   12   14 am
    19   16   20 2
    20   16   21 1
    21   17   18 1
    22   17   21 2
    23   18   19 2
    24   18   22 1
    25   19   20 1
    26    1   23 1
    27    4   24 1
    28    9   25 1
    29   14   26 1
    30   14   27 1
    31   15   28 1
    32   17   29 1
    33   19   30 1
    34   20   31 1
    35   21   32 1
@<TRIPOS>PROPERTY_DATA
  Total_Score	| 6.8507
  Crash		| -0.5406
  Polar		| 3.6165
  FragIndex	| 1
  FragRMSD	| 0.157

