@<TRIPOS>MOLECULE
BindingDB_7200
 35 38 0 0 0
SMALL
NO_CHARGES


@<TRIPOS>ATOM
1    C       -14.3685  203.7092  111.9340  C     
2    C       -11.9718  205.0913  111.3571  C     
3    C       -12.8981  204.8147  110.3505  C     
4    C       -10.9108  205.6915  110.6922  C     
5    C       -13.4422  204.0180  112.9637  C     
6    C       -12.2576  204.7229  112.6985  C     
7    C       -13.4382  203.7505  114.3306  C     
8    N       -11.2358  205.8045  109.3847  N     
9    N       -12.4102  205.2947  109.1946  N     
10   N       -12.2951  204.2857  114.8159  N     
11   N       -11.6072  204.8686  113.8742  N     
12   C       -14.3896  203.1294  115.1146  C     
13   O       -15.4615  202.7639  114.6416  O     
14   N       -14.1979  202.8987  116.3912  N     
15   C       -10.4605  205.5723  114.1639  C     
16   C        -8.4644  205.9480  115.5654  C     
17   C        -8.1967  207.1437  114.8666  C     
18   C        -9.0413  207.5654  113.8427  C     
19   C       -10.1979  206.8098  113.5144  C     
20   C        -9.6007  205.1723  115.1986  C     
21   C       -14.0948  204.1291  110.6168  C     
22   C        -7.5843  205.5610  116.6829  C     
23   H       -15.2285  203.1891  112.1308  H     
24   H       -10.0140  205.9920  111.0780  H     
25   H       -12.8596  205.2495  108.3352  H     
26   H       -14.8875  202.4590  116.9199  H     
27   H       -13.3630  203.1639  116.8174  H     
28   H        -7.3968  207.7278  115.1258  H     
29   H        -8.8717  208.4490  113.3649  H     
30   H       -10.8323  207.1789  112.8187  H     
31   H        -9.7886  204.2996  115.7005  H     
32   H       -14.7498  203.9333  109.8601  H     
33   H        -6.6101  205.2644  116.2897  H     
34   H        -8.0073  204.7363  117.2581  H     
35   H        -7.4456  206.4025  117.3657  H     
@<TRIPOS>BOND
     1    1    5 1
     2    1   21 2
     3    2    3 2
     4    2    4 1
     5    2    6 1
     6    3    9 1
     7    3   21 1
     8    4    8 2
     9    5    6 2
    10    5    7 1
    11    6   11 1
    12    7   10 2
    13    7   12 1
    14    8    9 1
    15   10   11 1
    16   11   15 1
    17   12   13 2
    18   12   14 am
    19   15   19 2
    20   15   20 1
    21   16   17 1
    22   16   20 2
    23   16   22 1
    24   17   18 2
    25   18   19 1
    26    1   23 1
    27    4   24 1
    28    9   25 1
    29   14   26 1
    30   14   27 1
    31   17   28 1
    32   18   29 1
    33   19   30 1
    34   20   31 1
    35   21   32 1
    36   22   33 1
    37   22   34 1
    38   22   35 1
@<TRIPOS>PROPERTY_DATA
  Total_Score	| 6.9436
  Crash		| -0.4365
  Polar		| 3.6506
  FragIndex	| 1
  FragRMSD	| 0.373

