@<TRIPOS>MOLECULE
BindingDB_7195
 33 36 0 0 0
SMALL
NO_CHARGES


@<TRIPOS>ATOM
1    C       -14.4598  203.8223  111.9424  C     
2    C       -12.0289  205.1020  111.2874  C     
3    C       -12.9916  204.8530  110.3082  C     
4    C       -10.9661  205.6801  110.6019  C     
5    C       -13.4834  204.0805  112.9351  C     
6    C       -12.2830  204.7375  112.6276  C     
7    C       -13.4273  203.7996  114.2995  C     
8    N       -11.3056  205.7683  109.3028  N     
9    N       -12.4994  205.2847  109.1401  N     
10   N       -12.2490  204.2890  114.7408  N     
11   N       -11.5792  204.8523  113.7776  N     
12   C       -14.3542  203.1709  115.1137  C     
13   O       -15.4110  202.7467  114.6737  O     
14   N       -14.1366  203.0038  116.3997  N     
15   C       -10.3758  205.4674  113.9751  C     
16   C        -8.0823  205.4077  114.8457  C     
17   C        -7.8635  206.7330  114.4106  C     
18   C        -8.9117  207.4279  113.7707  C     
19   C       -10.1574  206.8026  113.5671  C     
20   C        -9.3366  204.7944  114.6541  C     
21   C       -14.2167  204.2316  110.6139  C     
22   C        -6.7090  207.3093  114.6026  C     
23   N        -5.6919  207.8144  114.7690  N     
24   H       -15.3337  203.3432  112.1702  H     
25   H       -10.0704  205.9693  110.9909  H     
26   H       -12.9616  205.2258  108.2903  H     
27   H       -14.7916  202.5422  116.9502  H     
28   H       -13.3221  203.3384  116.8054  H     
29   H        -7.3449  204.8860  115.3214  H     
30   H        -8.7884  208.3997  113.4661  H     
31   H       -10.9115  207.3262  113.1152  H     
32   H        -9.4825  203.8427  114.9998  H     
33   H       -14.9109  204.0698  109.8844  H     
@<TRIPOS>BOND
     1    1    5 1
     2    1   21 2
     3    2    3 2
     4    2    4 1
     5    2    6 1
     6    3    9 1
     7    3   21 1
     8    4    8 2
     9    5    6 2
    10    5    7 1
    11    6   11 1
    12    7   10 2
    13    7   12 1
    14    8    9 1
    15   10   11 1
    16   11   15 1
    17   12   13 2
    18   12   14 am
    19   15   19 2
    20   15   20 1
    21   16   17 1
    22   16   20 2
    23   17   18 2
    24   17   22 1
    25   18   19 1
    26   22   23 3
    27    1   24 1
    28    4   25 1
    29    9   26 1
    30   14   27 1
    31   14   28 1
    32   16   29 1
    33   18   30 1
    34   19   31 1
    35   20   32 1
    36   21   33 1
@<TRIPOS>PROPERTY_DATA
  Total_Score	| 7.2401
  Crash		| -0.4112
  Polar		| 3.6213
  FragIndex	| 1
  FragRMSD	| 0.157

