@<TRIPOS>MOLECULE
BindingDB_7187
 32 35 0 0 0
SMALL
NO_CHARGES


@<TRIPOS>ATOM
1    C       -14.4489  203.8888  111.8806  C     
2    C       -11.9815  205.1367  111.3088  C     
3    C       -12.9225  204.9241  110.3048  C     
4    C       -10.8965  205.7054  110.6525  C     
5    C       -13.4919  204.1110  112.9007  C     
6    C       -12.2733  204.7493  112.6357  C     
7    C       -13.4754  203.7967  114.2597  C     
8    N       -11.2041  205.8261  109.3479  N     
9    N       -12.4034  205.3709  109.1538  N     
10   N       -12.3025  204.2444  114.7396  N     
11   N       -11.5944  204.8095  113.8053  N     
12   C       -14.4286  203.1514  115.0342  C     
13   O       -15.4616  202.7168  114.5502  O     
14   N       -14.2500  202.9741  116.3251  N     
15   C       -14.1636  204.3124  110.5640  C     
16   C       -10.3666  205.3606  114.0637  C     
17   C        -8.1273  205.1676  115.0464  C     
18   C        -7.8301  206.4841  114.6541  C     
19   C        -8.8036  207.2466  113.9811  C     
20   C       -10.0656  206.6926  113.7008  C     
21   C        -9.3874  204.6122  114.7591  C     
22   Cl       -6.3120  207.1560  114.9972  Cl    
23   H       -15.3368  203.4222  112.0782  H     
24   H        -9.9958  205.9674  111.0611  H     
25   H       -12.8495  205.3404  108.2920  H     
26   H       -14.9201  202.5087  116.8501  H     
27   H       -13.4483  203.3088  116.7567  H     
28   H       -14.8357  204.1621  109.8140  H     
29   H        -7.4315  204.6074  115.5441  H     
30   H        -8.6020  208.2081  113.6942  H     
31   H       -10.7707  207.2650  113.2333  H     
32   H        -9.5849  203.6501  115.0504  H     
@<TRIPOS>BOND
     1    1    5 1
     2    1   15 2
     3    2    3 2
     4    2    4 1
     5    2    6 1
     6    3    9 1
     7    3   15 1
     8    4    8 2
     9    5    6 2
    10    5    7 1
    11    6   11 1
    12    7   10 2
    13    7   12 1
    14    8    9 1
    15   10   11 1
    16   11   16 1
    17   12   13 2
    18   12   14 am
    19   16   20 2
    20   16   21 1
    21   17   18 1
    22   17   21 2
    23   18   19 2
    24   18   22 1
    25   19   20 1
    26    1   23 1
    27    4   24 1
    28    9   25 1
    29   14   26 1
    30   14   27 1
    31   15   28 1
    32   17   29 1
    33   19   30 1
    34   20   31 1
    35   21   32 1
@<TRIPOS>PROPERTY_DATA
  Total_Score	| 7.2113
  Crash		| -0.2063
  Polar		| 3.9401
  FragIndex	| 1
  FragRMSD	| 0.117

