@<TRIPOS>MOLECULE
BindingDB_7183
 35 38 0 0 0
SMALL
NO_CHARGES


@<TRIPOS>ATOM
1    C       -14.4760  203.8835  111.9377  C     
2    C       -12.0215  205.1192  111.2885  C     
3    C       -12.9837  204.8902  110.3086  C     
4    C       -10.9433  205.6705  110.6036  C     
5    C       -13.5001  204.1203  112.9345  C     
6    C       -12.2890  204.7527  112.6272  C     
7    C       -13.4450  203.8272  114.2981  C     
8    N       -11.2802  205.7743  109.3056  N     
9    N       -12.4836  205.3188  109.1418  N     
10   N       -12.2547  204.2909  114.7360  N     
11   N       -11.5785  204.8448  113.7722  N     
12   C       -14.3779  203.1910  115.0974  C     
13   O       -15.4399  202.7873  114.6491  O     
14   N       -14.1583  202.9898  116.3786  N     
15   C       -14.2175  204.2843  110.6096  C     
16   C       -10.3673  205.4431  113.9704  C     
17   C        -8.8885  207.3924  113.7611  C     
18   C        -7.8455  206.6920  114.4027  C     
19   C        -8.0802  205.3669  114.8324  C     
20   C        -9.3269  204.7486  114.6230  C     
21   C       -10.1387  206.7791  113.5632  C     
22   C        -6.5416  207.3591  114.6116  C     
23   H       -15.3611  203.4256  112.1601  H     
24   H       -10.0364  205.9314  110.9849  H     
25   H       -12.9413  205.2735  108.2921  H     
26   H       -14.8223  202.5340  116.9223  H     
27   H       -13.3319  203.2934  116.7849  H     
28   H       -14.9055  204.1254  109.8753  H     
29   H        -8.7448  208.3444  113.4217  H     
30   H        -7.3393  204.8393  115.2975  H     
31   H        -9.4742  203.7892  114.9509  H     
32   H       -10.8855  207.3129  113.1137  H     
33   H        -6.0960  207.6207  113.6480  H     
34   H        -5.8342  206.7233  115.1518  H     
35   H        -6.6859  208.2740  115.1924  H     
@<TRIPOS>BOND
     1    1    5 1
     2    1   15 2
     3    2    3 2
     4    2    4 1
     5    2    6 1
     6    3    9 1
     7    3   15 1
     8    4    8 2
     9    5    6 2
    10    5    7 1
    11    6   11 1
    12    7   10 2
    13    7   12 1
    14    8    9 1
    15   10   11 1
    16   11   16 1
    17   12   13 2
    18   12   14 am
    19   16   20 2
    20   16   21 1
    21   17   18 1
    22   17   21 2
    23   18   19 2
    24   18   22 1
    25   19   20 1
    26    1   23 1
    27    4   24 1
    28    9   25 1
    29   14   26 1
    30   14   27 1
    31   15   28 1
    32   17   29 1
    33   19   30 1
    34   20   31 1
    35   21   32 1
    36   22   33 1
    37   22   34 1
    38   22   35 1
@<TRIPOS>PROPERTY_DATA
  Total_Score	| 7.4240
  Crash		| -0.4145
  Polar		| 3.6288
  FragIndex	| 1
  FragRMSD	| 0.156

