@<TRIPOS>MOLECULE
BindingDB_7234
 57 60 0 0 0
SMALL
NO_CHARGES


@<TRIPOS>ATOM
1    C       -14.4467  203.9831  112.0568  C     
2    C       -11.9391  205.0274  111.2754  C     
3    C       -12.9856  204.8883  110.3543  C     
4    C       -10.8584  205.4947  110.5437  C     
5    C       -13.3877  204.1119  112.9946  C     
6    C       -12.1533  204.6834  112.6349  C     
7    C       -13.2991  203.8096  114.3501  C     
8    N       -11.2789  205.6793  109.2849  N     
9    N       -12.5273  205.3393  109.1827  N     
10   N       -12.0921  204.2475  114.7616  N     
11   N       -11.4109  204.7594  113.7770  N     
12   C       -14.2446  204.3850  110.7254  C     
13   C       -10.2105  205.3656  114.0037  C     
14   C        -8.8462  207.4026  114.1227  C     
15   C        -7.8303  206.7107  114.8216  C     
16   C        -8.0270  205.3510  115.1278  C     
17   C        -9.2073  204.6885  114.7299  C     
18   C       -10.0271  206.7388  113.7259  C     
19   C       -14.2436  203.2965  115.2079  C     
20   O       -15.3933  203.1085  114.8363  O     
21   O        -6.6922  208.9589  115.7114  O     
22   S        -6.3168  207.4896  115.2251  S     
23   O        -5.5383  206.8302  116.4405  O     
24   N        -5.2574  207.8193  113.9480  N     
25   C        -4.2909  206.8814  113.4749  C     
26   C        -4.9564  205.7925  112.5965  C     
27   C        -5.0559  206.1059  111.0915  C     
28   C        -6.5274  206.4554  110.7480  C     
29   N       -13.9497  203.2227  116.4938  N     
30   O       -14.8888  203.2132  117.3998  O     
31   C       -14.6249  204.1292  118.5181  C     
32   C       -14.5755  205.5561  118.2470  C     
33   C       -14.8922  206.1128  117.0684  C     
34   H       -15.3449  203.5961  112.3289  H     
35   H        -9.9231  205.6486  110.8911  H     
36   H       -13.0525  205.3744  108.3658  H     
37   H       -14.9864  204.3526  110.0391  H     
38   H        -8.7361  208.3946  113.8915  H     
39   H        -7.3258  204.8236  115.6452  H     
40   H        -9.3520  203.7107  115.0016  H     
41   H       -10.7604  207.2706  113.2463  H     
42   H        -5.5596  208.4832  113.3031  H     
43   H        -3.5477  207.4435  112.8819  H     
44   H        -3.7641  206.4279  114.3186  H     
45   H        -4.3754  204.8735  112.6993  H     
46   H        -5.9711  205.6120  112.9616  H     
47   H        -4.4108  206.9569  110.8361  H     
48   H        -4.7432  205.2328  110.5092  H     
49   H        -7.1369  205.5575  110.7697  H     
50   H        -6.5806  206.8943  109.7444  H     
51   H        -6.9450  207.1642  111.4647  H     
52   H       -13.0580  203.4696  116.8009  H     
53   H       -15.4166  203.9099  119.2400  H     
54   H       -13.6683  203.8119  118.9657  H     
55   H       -14.2618  206.1607  118.9789  H     
56   H       -14.8020  207.0927  116.9459  H     
57   H       -15.1768  205.5460  116.2930  H     
@<TRIPOS>BOND
     1    1    5 1
     2    1   12 2
     3    2    3 2
     4    2    4 1
     5    2    6 1
     6    3    9 1
     7    3   12 1
     8    4    8 2
     9    5    6 2
    10    5    7 1
    11    6   11 1
    12    7   10 2
    13    7   19 1
    14    8    9 1
    15   10   11 1
    16   11   13 1
    17   13   17 1
    18   13   18 2
    19   14   15 2
    20   14   18 1
    21   15   16 1
    22   15   22 1
    23   16   17 2
    24   19   20 2
    25   19   29 am
    26   21   22 2
    27   22   23 2
    28   22   24 1
    29   24   25 1
    30   25   26 1
    31   26   27 1
    32   27   28 1
    33   29   30 1
    34   30   31 1
    35   31   32 1
    36   32   33 2
    37    1   34 1
    38    4   35 1
    39    9   36 1
    40   12   37 1
    41   14   38 1
    42   16   39 1
    43   17   40 1
    44   18   41 1
    45   24   42 1
    46   25   43 1
    47   25   44 1
    48   26   45 1
    49   26   46 1
    50   27   47 1
    51   27   48 1
    52   28   49 1
    53   28   50 1
    54   28   51 1
    55   29   52 1
    56   31   53 1
    57   31   54 1
    58   32   55 1
    59   33   56 1
    60   33   57 1
@<TRIPOS>PROPERTY_DATA
  Total_Score	| 10.4496
  Crash		| -3.0378
  Polar		| 5.5639
  FragIndex	| 1
  FragRMSD	| 0.273

