@<TRIPOS>MOLECULE
BindingDB_7185
 36 39 0 0 0
SMALL
NO_CHARGES


@<TRIPOS>ATOM
1    C       -14.5673  203.9245  111.9655  C     
2    C       -12.1075  205.1025  111.2292  C     
3    C       -13.1105  204.9001  110.2880  C     
4    C       -11.0623  205.6625  110.5135  C     
5    C       -13.5359  204.1114  112.9165  C     
6    C       -12.3284  204.7147  112.5697  C     
7    C       -13.4310  203.7962  114.2730  C     
8    N       -11.4443  205.7778  109.2326  N     
9    N       -12.6540  205.3284  109.1014  N     
10   N       -12.2173  204.2185  114.6771  N     
11   N       -11.5915  204.7802  113.6941  N     
12   C       -14.3669  203.1827  115.0943  C     
13   O       -15.4643  202.8360  114.6786  O     
14   N       -14.1224  202.9693  116.3698  N     
15   C       -14.3497  204.3291  110.6308  C     
16   C       -10.3887  205.3837  113.8798  C     
17   C        -8.9405  207.3738  113.7168  C     
18   C        -7.8791  206.6736  114.3314  C     
19   C        -8.0710  205.3205  114.7051  C     
20   C        -9.3248  204.6991  114.5048  C     
21   C       -10.1795  206.7264  113.4912  C     
22   O        -6.6725  207.3239  114.4072  O     
23   C        -6.2983  207.9250  115.6691  C     
24   H       -15.4595  203.4977  112.2268  H     
25   H       -10.1503  205.9191  110.8765  H     
26   H       -13.1447  205.2909  108.2687  H     
27   H       -14.7937  202.5439  116.9389  H     
28   H       -13.2784  203.2512  116.7672  H     
29   H       -15.0809  204.2008  109.9273  H     
30   H        -8.8094  208.3467  113.4104  H     
31   H        -7.2925  204.7879  115.1252  H     
32   H        -9.4545  203.7287  114.8326  H     
33   H       -10.9359  207.2532  113.0468  H     
34   H        -7.0776  208.6167  116.0183  H     
35   H        -5.3809  208.4896  115.5204  H     
36   H        -6.1427  207.1497  116.4386  H     
@<TRIPOS>BOND
     1    1    5 1
     2    1   15 2
     3    2    3 2
     4    2    4 1
     5    2    6 1
     6    3    9 1
     7    3   15 1
     8    4    8 2
     9    5    6 2
    10    5    7 1
    11    6   11 1
    12    7   10 2
    13    7   12 1
    14    8    9 1
    15   10   11 1
    16   11   16 1
    17   12   13 2
    18   12   14 am
    19   16   20 2
    20   16   21 1
    21   17   18 1
    22   17   21 2
    23   18   19 2
    24   18   22 1
    25   19   20 1
    26   22   23 1
    27    1   24 1
    28    4   25 1
    29    9   26 1
    30   14   27 1
    31   14   28 1
    32   15   29 1
    33   17   30 1
    34   19   31 1
    35   20   32 1
    36   21   33 1
    37   23   34 1
    38   23   35 1
    39   23   36 1
@<TRIPOS>PROPERTY_DATA
  Total_Score	| 7.7740
  Crash		| -0.5468
  Polar		| 3.5696
  FragIndex	| 1
  FragRMSD	| 0.215

