@<TRIPOS>MOLECULE
BindingDB_7171
 43 46 0 0 0
SMALL
NO_CHARGES


@<TRIPOS>ATOM
1    C       -14.5025  203.8795  111.8417  C     
2    C       -12.0274  205.1529  111.4123  C     
3    C       -12.9153  204.9496  110.3578  C     
4    C       -10.9083  205.7330  110.8248  C     
5    C       -13.5980  204.0790  112.9086  C     
6    C       -12.3758  204.7351  112.7149  C     
7    C       -13.6317  203.7164  114.2568  C     
8    N       -11.1520  205.8741  109.5075  N     
9    N       -12.3344  205.4172  109.2428  N     
10   N       -12.4808  204.1564  114.7983  N     
11   N       -11.7467  204.7678  113.9114  N     
12   C       -10.5601  205.3516  114.2539  C     
13   C        -8.4922  205.3292  115.5727  C     
14   C        -8.1711  206.6269  115.1366  C     
15   C        -9.0545  207.2777  114.2530  C     
16   C       -10.2372  206.6556  113.8104  C     
17   C        -9.6745  204.7006  115.1438  C     
18   O        -6.7905  208.9743  115.5736  O     
19   S        -6.7061  207.3909  115.6985  S     
20   O        -6.6056  207.2059  117.2733  O     
21   N        -5.2832  206.8414  114.9683  N     
22   C       -14.6080  203.0441  114.9656  C     
23   O       -15.6685  202.7400  114.4426  O     
24   N       -14.4295  202.6981  116.2235  N     
25   C        -4.9044  207.4567  113.7272  C     
26   C       -14.1637  204.3315  110.5500  C     
27   C        -4.7963  205.5252  115.2845  C     
28   H       -15.3939  203.4093  111.9787  H     
29   H       -10.0333  205.9853  111.2775  H     
30   H       -12.7329  205.3994  108.3520  H     
31   H        -7.8789  204.8386  116.2261  H     
32   H        -8.8400  208.2227  113.9309  H     
33   H       -10.8759  207.1683  113.1857  H     
34   H        -9.8826  203.7614  115.4883  H     
35   H       -15.1188  202.2073  116.7004  H     
36   H       -13.5976  202.9115  116.6757  H     
37   H        -5.5637  207.1148  112.9235  H     
38   H        -3.8780  207.2038  113.4546  H     
39   H        -4.9650  208.5460  113.7997  H     
40   H       -14.8104  204.2022  109.7659  H     
41   H        -4.8680  205.3167  116.3525  H     
42   H        -3.7460  205.4176  115.0098  H     
43   H        -5.3763  204.7848  114.7327  H     
@<TRIPOS>BOND
     1    1    5 1
     2    1   26 2
     3    2    3 2
     4    2    4 1
     5    2    6 1
     6    3    9 1
     7    3   26 1
     8    4    8 2
     9    5    6 2
    10    5    7 1
    11    6   11 1
    12    7   10 2
    13    7   22 1
    14    8    9 1
    15   10   11 1
    16   11   12 1
    17   12   16 1
    18   12   17 2
    19   13   14 2
    20   13   17 1
    21   14   15 1
    22   14   19 1
    23   15   16 2
    24   18   19 2
    25   19   20 2
    26   19   21 1
    27   21   25 1
    28   21   27 1
    29   22   23 2
    30   22   24 am
    31    1   28 1
    32    4   29 1
    33    9   30 1
    34   13   31 1
    35   15   32 1
    36   16   33 1
    37   17   34 1
    38   24   35 1
    39   24   36 1
    40   25   37 1
    41   25   38 1
    42   25   39 1
    43   26   40 1
    44   27   41 1
    45   27   42 1
    46   27   43 1
@<TRIPOS>PROPERTY_DATA
  Total_Score	| 8.9533
  Crash		| -0.9648
  Polar		| 4.5618
  FragIndex	| 1
  FragRMSD	| 0.483

