@<TRIPOS>MOLECULE
BindingDB_7173
 49 52 0 0 0
SMALL
NO_CHARGES


@<TRIPOS>ATOM
1    C       -14.4159  203.8539  111.8625  C     
2    C       -11.9456  205.1074  111.3242  C     
3    C       -12.8775  204.9031  110.3069  C     
4    C       -10.8558  205.6891  110.6876  C     
5    C       -13.4646  204.0629  112.8930  C     
6    C       -12.2420  204.6999  112.6462  C     
7    C       -13.4562  203.7345  114.2449  C     
8    N       -11.1544  205.8259  109.3784  N     
9    N       -12.3472  205.3663  109.1666  N     
10   N       -12.2784  204.1733  114.7382  N     
11   N       -11.5664  204.7531  113.8158  N     
12   C       -10.3731  205.3569  114.0936  C     
13   C        -8.9426  207.3507  114.0668  C     
14   C        -7.9160  206.6489  114.7311  C     
15   C        -8.1391  205.3056  115.0937  C     
16   C        -9.3576  204.6694  114.7965  C     
17   C       -10.1587  206.7092  113.7546  C     
18   O        -6.7207  208.9316  115.5876  O     
19   S        -6.4142  207.4387  115.1451  S     
20   O        -5.7701  206.8429  116.4683  O     
21   N        -5.2408  207.5460  113.9350  N     
22   C       -14.4260  203.1065  115.0064  C     
23   O       -15.5163  202.8115  114.5385  O     
24   N       -14.2221  202.8173  116.2727  N     
25   C       -14.1187  204.2885  110.5543  C     
26   C        -4.2345  206.5654  113.7124  C     
27   C        -4.5625  205.5977  112.5476  C     
28   C        -4.7222  206.2617  111.1494  C     
29   C        -6.1964  206.5358  110.7711  C     
30   H       -15.3076  203.3985  112.0501  H     
31   H        -9.9657  205.9564  111.1148  H     
32   H       -12.7856  205.3420  108.3000  H     
33   H        -8.8228  208.3320  113.8046  H     
34   H        -7.4210  204.7860  115.5948  H     
35   H        -9.4983  203.6971  115.0791  H     
36   H       -10.8980  207.2402  113.2858  H     
37   H        -5.3414  208.2592  113.2820  H     
38   H       -14.9165  202.3801  116.7904  H     
39   H       -13.3731  203.0316  116.6910  H     
40   H       -14.7840  204.1448  109.7938  H     
41   H        -3.2998  207.0847  113.4849  H     
42   H        -4.0584  205.9761  114.6192  H     
43   H        -3.7493  204.8702  112.4889  H     
44   H        -5.4668  205.0382  112.7988  H     
45   H        -4.1586  207.2008  111.1138  H     
46   H        -4.3041  205.5978  110.3859  H     
47   H        -6.7322  205.5936  110.6163  H     
48   H        -6.2375  207.1086  109.8488  H     
49   H        -6.7028  207.1066  111.5518  H     
@<TRIPOS>BOND
     1    1    5 1
     2    1   25 2
     3    2    3 2
     4    2    4 1
     5    2    6 1
     6    3    9 1
     7    3   25 1
     8    4    8 2
     9    5    6 2
    10    5    7 1
    11    6   11 1
    12    7   10 2
    13    7   22 1
    14    8    9 1
    15   10   11 1
    16   11   12 1
    17   12   16 1
    18   12   17 2
    19   13   14 2
    20   13   17 1
    21   14   15 1
    22   14   19 1
    23   15   16 2
    24   18   19 2
    25   19   20 2
    26   19   21 1
    27   21   26 1
    28   22   23 2
    29   22   24 am
    30   26   27 1
    31   27   28 1
    32   28   29 1
    33    1   30 1
    34    4   31 1
    35    9   32 1
    36   13   33 1
    37   15   34 1
    38   16   35 1
    39   17   36 1
    40   21   37 1
    41   24   38 1
    42   24   39 1
    43   25   40 1
    44   26   41 1
    45   26   42 1
    46   27   43 1
    47   27   44 1
    48   28   45 1
    49   28   46 1
    50   29   47 1
    51   29   48 1
    52   29   49 1
@<TRIPOS>PROPERTY_DATA
  Total_Score	| 10.8467
  Crash		| -1.9442
  Polar		| 5.7388
  FragIndex	| 1
  FragRMSD	| 0.180

