@<TRIPOS>MOLECULE
BindingDB_50308854
 93 99 0 0 0
SMALL
NO_CHARGES


@<TRIPOS>ATOM
1    C        38.8250   46.4603   52.7236  C     
2    C        37.9364   45.2646   52.3105  C     
3    C        36.8097   45.3901   51.4497  C     
4    C        36.2399   44.2894   50.7909  C     
5    C        36.7231   42.9815   51.0056  C     
6    C        37.7140   42.7985   51.9848  C     
7    C        38.3164   43.9117   52.5872  C     
8    C        39.2273   47.2502   51.3971  C     
9    C        38.1630   47.9751   50.6249  C     
10   C        37.8690   49.3407   50.8816  C     
11   C        36.8463   50.0106   50.1912  C     
12   C        36.0623   49.3484   49.2090  C     
13   C        36.4058   48.0039   48.9116  C     
14   C        37.4617   47.3510   49.5630  C     
15   C        34.9246   50.0246   48.5036  C     
16   P        35.2736   50.4102   46.9175  P     
17   O        34.0607   51.0386   46.2066  O     
18   F        33.8179   49.2027   48.5253  F     
19   F        34.5228   51.1902   49.1256  F     
20   O        35.6584   49.2800   46.1126  O     
21   O        36.4187   51.4314   46.7986  O     
22   C        38.3065   47.5291   53.6838  C     
23   C        39.2114   48.4515   54.2922  C     
24   C        38.7732   49.4734   55.1502  C     
25   C        37.3963   49.6331   55.3941  C     
26   C        36.4731   48.7689   54.7798  C     
27   C        36.9279   47.7142   53.9760  C     
28   C        36.2226   41.8823   50.2399  C     
29   C        34.8384   41.6275   50.3869  C     
30   C        34.2017   40.5968   49.6867  C     
31   C        36.9986   41.0601   49.3479  C     
32   C        36.3520   39.9714   48.6827  C     
33   C        34.9516   39.7670   48.8392  C     
34   C        34.3506   38.7322   48.1215  C     
35   C        35.0709   37.9283   47.3292  C     
36   C        36.4246   38.0940   47.1983  C     
37   N        37.0035   39.0979   47.8507  N     
38   C        37.2011   37.2360   46.3041  C     
39   C        37.1384   35.7272   46.7407  C     
40   O        36.7326   37.5587   44.9741  O     
41   C        36.8137   36.5798   43.9285  C     
42   C        38.2875   35.2585   47.6991  C     
43   C        37.8081   34.0531   48.5457  C     
44   C        39.5992   34.9079   46.9288  C     
45   P        38.5597   41.3314   48.9931  P     
46   O        39.3565   42.1225   49.8955  O     
47   O        39.2912   39.9822   48.8322  O     
48   O        38.6419   42.0677   47.6359  O     
49   N        40.0321   45.9218   53.3728  N     
50   N        41.9653   45.0443   53.4767  N     
51   N        41.1049   45.6065   52.7454  N     
52   C        41.4638   44.9609   54.7088  C     
53   C        40.1951   45.5199   54.6598  C     
54   C        39.3848   45.5261   55.8098  C     
55   C        39.9059   44.9973   57.0157  C     
56   C        41.2038   44.4495   57.0517  C     
57   C        42.0000   44.4161   55.8857  C     
58   H        36.4342   46.2889   51.1941  H     
59   H        35.4915   44.4467   50.1064  H     
60   H        38.0539   41.8570   52.2109  H     
61   H        39.0954   43.6846   53.2020  H     
62   H        39.9969   47.9965   51.6408  H     
63   H        39.7266   46.5524   50.7179  H     
64   H        38.4020   49.8600   51.5813  H     
65   H        36.6604   50.9894   50.4229  H     
66   H        35.8828   47.4886   48.1990  H     
67   H        37.6585   46.3708   49.3222  H     
68   H        40.2155   48.3882   54.1144  H     
69   H        39.4476   50.0978   55.6077  H     
70   H        37.0691   50.3844   56.0045  H     
71   H        35.4722   48.9033   54.9298  H     
72   H        36.2279   47.1168   53.5350  H     
73   H        34.2630   42.2007   51.0145  H     
74   H        33.1926   40.4494   49.8036  H     
75   H        33.3708   38.5821   48.1745  H     
76   H        34.6009   37.2099   46.8243  H     
77   H        38.2455   37.5516   46.3244  H     
78   H        36.1741   35.5270   47.2318  H     
79   H        37.1595   35.0757   45.8611  H     
80   H        37.7840   36.0760   43.9271  H     
81   H        36.6765   37.0794   42.9663  H     
82   H        36.0173   35.8457   44.0361  H     
83   H        38.5091   36.0749   48.3974  H     
84   H        36.9609   34.3354   49.1744  H     
85   H        38.6057   33.6885   49.1986  H     
86   H        37.4936   33.2406   47.8924  H     
87   H        39.3822   34.3267   46.0243  H     
88   H        40.2794   34.3254   47.5668  H     
89   H        40.1291   35.8191   46.6439  H     
90   H        38.4374   45.8967   55.7813  H     
91   H        39.3245   44.9971   57.8583  H     
92   H        41.5753   44.0681   57.9260  H     
93   H        42.9347   44.0132   55.8962  H     
@<TRIPOS>BOND
     1    1    2 1
     2    1    8 1
     3    1   22 1
     4    1   49 1
     5    2    3 2
     6    2    7 1
     7    3    4 1
     8    4    5 2
     9    5    6 1
    10    5   28 1
    11    6    7 2
    12    8    9 1
    13    9   10 2
    14    9   14 1
    15   10   11 1
    16   11   12 2
    17   12   13 1
    18   12   15 1
    19   13   14 2
    20   15   16 1
    21   15   18 1
    22   15   19 1
    23   16   17 1
    24   16   20 2
    25   16   21 1
    26   22   23 2
    27   22   27 1
    28   23   24 1
    29   24   25 2
    30   25   26 1
    31   26   27 2
    32   28   29 2
    33   28   31 1
    34   29   30 1
    35   30   33 2
    36   31   32 2
    37   31   45 1
    38   32   33 1
    39   32   37 1
    40   33   34 1
    41   34   35 2
    42   35   36 1
    43   36   37 2
    44   36   38 1
    45   38   39 1
    46   38   40 1
    47   39   42 1
    48   40   41 1
    49   42   43 1
    50   42   44 1
    51   45   46 2
    52   45   47 1
    53   45   48 1
    54   49   51 1
    55   49   53 1
    56   50   51 2
    57   50   52 1
    58   52   53 2
    59   52   57 1
    60   53   54 1
    61   54   55 2
    62   55   56 1
    63   56   57 2
    64    3   58 1
    65    4   59 1
    66    6   60 1
    67    7   61 1
    68    8   62 1
    69    8   63 1
    70   10   64 1
    71   11   65 1
    72   13   66 1
    73   14   67 1
    74   23   68 1
    75   24   69 1
    76   25   70 1
    77   26   71 1
    78   27   72 1
    79   29   73 1
    80   30   74 1
    81   34   75 1
    82   35   76 1
    83   38   77 1
    84   39   78 1
    85   39   79 1
    86   41   80 1
    87   41   81 1
    88   41   82 1
    89   42   83 1
    90   43   84 1
    91   43   85 1
    92   43   86 1
    93   44   87 1
    94   44   88 1
    95   44   89 1
    96   54   90 1
    97   55   91 1
    98   56   92 1
    99   57   93 1
@<TRIPOS>PROPERTY_DATA
  Total_Score	| 13.9950
  Crash		| -3.9382
  Polar		| 8.4734
  FragIndex	| 1
  FragRMSD	| 1.217

