@<TRIPOS>MOLECULE
BindingDB_50142333
 65 69 0 0 0
SMALL
NO_CHARGES


@<TRIPOS>ATOM
1    N        39.7443   45.7146   53.2114  N     
2    N        40.7687   45.3436   52.5098  N     
3    P        35.2170   50.4379   46.8647  P     
4    C        34.7671   50.0420   48.4223  C     
5    N        41.6710   44.7560   53.1676  N     
6    C        38.5881   46.3826   52.5916  C     
7    C        40.0030   45.3150   54.4876  C     
8    C        41.2654   44.7201   54.4377  C     
9    C        35.8640   49.3410   49.1676  C     
10   O        35.6484   49.3192   46.0651  O     
11   C        39.0377   47.2839   51.3549  C     
12   C        37.7044   45.2576   52.0442  C     
13   F        33.6320   49.2644   48.3881  F     
14   F        34.3720   51.2074   49.0441  F     
15   O        34.0432   51.0639   46.0967  O     
16   O        36.3531   51.4718   46.7903  O     
17   C        36.1952   47.9895   48.8847  C     
18   C        36.6329   50.0051   50.1514  C     
19   C        37.9683   47.9879   50.5835  C     
20   C        37.8979   47.3740   53.6366  C     
21   C        37.2254   47.3282   49.5831  C     
22   C        37.6710   49.3470   50.8366  C     
23   C        39.3512   45.3878   55.7462  C     
24   C        37.1440   50.1771   55.2511  C     
25   C        38.7880   48.4603   54.3183  C     
26   C        41.9327   44.2293   55.5792  C     
27   C        36.2846   45.2272   52.1781  C     
28   C        38.2970   44.1992   51.2925  C     
29   C        38.1489   49.1340   55.5698  C     
30   C        37.5540   51.5179   55.0588  C     
31   C        35.7604   49.8796   55.2006  C     
32   C        39.9979   44.9238   56.9101  C     
33   C        41.2944   44.3650   56.8388  C     
34   C        35.5128   44.1988   51.6231  C     
35   C        37.5146   43.1812   50.7106  C     
36   C        34.8131   50.8967   54.9417  C     
37   C        36.6118   52.5319   54.7972  C     
38   C        35.2449   52.2215   54.7322  C     
39   C        36.1214   43.1737   50.8842  C     
40   H        39.7627   48.0245   51.7139  H     
41   H        39.6124   46.6899   50.6315  H     
42   H        35.6861   47.4769   48.1606  H     
43   H        36.4578   50.9874   50.3720  H     
44   H        37.0636   47.9194   53.1758  H     
45   H        37.4347   46.7731   54.4206  H     
46   H        37.4385   46.3591   49.3263  H     
47   H        38.2015   49.8821   51.5305  H     
48   H        38.4360   45.8002   55.8678  H     
49   H        39.7192   48.0061   54.6513  H     
50   H        39.0750   49.2285   53.6088  H     
51   H        42.8682   43.8138   55.5089  H     
52   H        35.7699   45.9572   52.6736  H     
53   H        39.3116   44.1578   51.1606  H     
54   H        38.9505   49.5871   56.1669  H     
55   H        37.7153   48.3677   56.2127  H     
56   H        38.5428   51.7723   55.1219  H     
57   H        35.4257   48.9263   55.3527  H     
58   H        39.5313   45.0072   57.8239  H     
59   H        41.7632   44.0472   57.6873  H     
60   H        34.5002   44.1914   51.7736  H     
61   H        37.9641   42.4346   50.1809  H     
62   H        33.8167   50.6757   54.9104  H     
63   H        36.9210   53.4985   54.6717  H     
64   H        34.5604   52.9584   54.5500  H     
65   H        35.5569   42.4195   50.4777  H     
@<TRIPOS>BOND
     1    1    2 1
     2    1    6 1
     3    1    7 1
     4    2    5 2
     5    3    4 1
     6    3   10 2
     7    3   15 1
     8    3   16 1
     9    4    9 1
    10    4   13 1
    11    4   14 1
    12    5    8 1
    13    6   11 1
    14    6   12 1
    15    6   20 1
    16    7    8 2
    17    7   23 1
    18    8   26 1
    19    9   17 1
    20    9   18 2
    21   11   19 1
    22   12   27 1
    23   12   28 2
    24   17   21 2
    25   18   22 1
    26   19   21 1
    27   19   22 2
    28   20   25 1
    29   23   32 2
    30   24   29 1
    31   24   30 2
    32   24   31 1
    33   25   29 1
    34   26   33 2
    35   27   34 2
    36   28   35 1
    37   30   37 1
    38   31   36 2
    39   32   33 1
    40   34   39 1
    41   35   39 2
    42   36   38 1
    43   37   38 2
    44   11   40 1
    45   11   41 1
    46   17   42 1
    47   18   43 1
    48   20   44 1
    49   20   45 1
    50   21   46 1
    51   22   47 1
    52   23   48 1
    53   25   49 1
    54   25   50 1
    55   26   51 1
    56   27   52 1
    57   28   53 1
    58   29   54 1
    59   29   55 1
    60   30   56 1
    61   31   57 1
    62   32   58 1
    63   33   59 1
    64   34   60 1
    65   35   61 1
    66   36   62 1
    67   37   63 1
    68   38   64 1
    69   39   65 1
@<TRIPOS>PROPERTY_DATA
  Total_Score	| 12.5489
  Crash		| -1.0804
  Polar		| 7.5555
  FragIndex	| 1
  FragRMSD	| 0.545

