@<TRIPOS>MOLECULE
BindingDB_50142325
 70 75 0 0 0
SMALL
NO_CHARGES


@<TRIPOS>ATOM
1    N        39.7289   45.5773   53.2005  N     
2    C        38.5864   46.3094   52.6333  C     
3    N        40.7758   45.2359   52.5339  N     
4    P        36.0894   40.1785   48.3900  P     
5    P        35.2585   50.5019   46.8797  P     
6    C        34.8383   50.0899   48.4467  C     
7    C        37.5528   40.9917   48.4678  C     
8    N        41.6738   44.6973   53.2355  N     
9    C        39.9568   45.2068   54.4849  C     
10   C        38.2723   47.4533   53.5370  C     
11   N        37.0157   47.7254   53.8947  N     
12   C        41.2275   44.6535   54.4911  C     
13   C        35.9131   49.3177   49.1539  C     
14   C        37.5589   42.0941   49.4880  C     
15   C        38.9454   46.9214   51.2092  C     
16   C        37.3946   45.2705   52.5072  C     
17   C        36.6488   48.8061   54.6380  C     
18   O        36.0204   39.3789   47.1882  O     
19   O        36.3318   51.4555   46.8100  O     
20   C        39.2641   48.3154   53.9796  C     
21   F        33.6916   49.3249   48.4170  F     
22   F        37.8451   41.5219   47.2303  F     
23   F        34.4982   51.2615   49.0916  F     
24   F        38.5257   40.0383   48.7075  F     
25   O        35.9296   39.2200   49.5902  O     
26   O        35.7085   49.3118   46.0058  O     
27   O        34.0583   51.1042   46.1376  O     
28   O        34.8628   41.1282   48.3773  O     
29   C        37.6656   49.6998   55.0739  C     
30   C        38.9815   49.3996   54.7287  C     
31   C        36.7010   49.8733   50.1904  C     
32   C        36.6203   43.1579   49.3977  C     
33   C        36.1944   47.9815   48.7750  C     
34   C        38.4707   42.1181   50.5798  C     
35   C        37.4903   44.2103   51.4446  C     
36   C        37.9329   47.7637   50.4903  C     
37   C        38.4452   43.1615   51.5351  C     
38   C        36.5631   44.1730   50.3731  C     
39   C        37.2235   47.2443   49.3808  C     
40   C        37.6975   49.1143   50.8378  C     
41   C        39.2352   45.3232   55.6916  C     
42   C        41.8393   44.1969   55.6656  C     
43   C        35.2998   49.0681   54.9479  C     
44   C        37.3154   50.8420   55.8273  C     
45   C        39.8297   44.8739   56.8890  C     
46   C        41.1284   44.3173   56.8785  C     
47   C        34.9619   50.2103   55.7003  C     
48   C        35.9658   51.0947   56.1378  C     
49   H        39.8596   47.5169   51.2765  H     
50   H        39.1993   46.0787   50.5655  H     
51   H        37.2702   44.7723   53.4711  H     
52   H        36.4587   45.8132   52.3654  H     
53   H        40.2135   48.1426   53.7526  H     
54   H        39.7226   49.9929   55.0325  H     
55   H        36.5631   50.8417   50.4930  H     
56   H        35.9378   43.1832   48.6341  H     
57   H        35.6611   47.5341   48.0240  H     
58   H        39.1588   41.3704   50.7045  H     
59   H        39.1036   43.1294   52.3243  H     
60   H        35.7970   44.8374   50.3302  H     
61   H        37.4530   46.3219   48.9945  H     
62   H        38.2735   49.5790   51.5453  H     
63   H        38.3041   45.7388   55.7104  H     
64   H        42.7831   43.8049   55.6444  H     
65   H        34.5638   48.4319   54.6297  H     
66   H        38.0323   51.4967   56.1451  H     
67   H        39.3211   44.9589   57.7716  H     
68   H        41.5549   44.0053   57.7535  H     
69   H        33.9826   50.4010   55.9246  H     
70   H        35.7146   51.9273   56.6737  H     
@<TRIPOS>BOND
     1    1    2 1
     2    1    3 1
     3    1    9 1
     4    2   10 1
     5    2   15 1
     6    2   16 1
     7    3    8 2
     8    4    7 1
     9    4   18 2
    10    4   25 1
    11    4   28 1
    12    5    6 1
    13    5   19 2
    14    5   26 1
    15    5   27 1
    16    6   13 1
    17    6   21 1
    18    6   23 1
    19    7   14 1
    20    7   22 1
    21    7   24 1
    22    8   12 1
    23    9   12 2
    24    9   41 1
    25   10   11 2
    26   10   20 1
    27   11   17 1
    28   12   42 1
    29   13   31 2
    30   13   33 1
    31   14   32 1
    32   14   34 2
    33   15   36 1
    34   16   35 1
    35   17   29 1
    36   17   43 2
    37   20   30 2
    38   29   30 1
    39   29   44 2
    40   31   40 1
    41   32   38 2
    42   33   39 2
    43   34   37 1
    44   35   37 2
    45   35   38 1
    46   36   39 1
    47   36   40 2
    48   41   45 2
    49   42   46 2
    50   43   47 1
    51   44   48 1
    52   45   46 1
    53   47   48 2
    54   15   49 1
    55   15   50 1
    56   16   51 1
    57   16   52 1
    58   20   53 1
    59   30   54 1
    60   31   55 1
    61   32   56 1
    62   33   57 1
    63   34   58 1
    64   37   59 1
    65   38   60 1
    66   39   61 1
    67   40   62 1
    68   41   63 1
    69   42   64 1
    70   43   65 1
    71   44   66 1
    72   45   67 1
    73   46   68 1
    74   47   69 1
    75   48   70 1
@<TRIPOS>PROPERTY_DATA
  Total_Score	| 15.3472
  Crash		| -1.2602
  Polar		| 9.1656
  FragIndex	| 1
  FragRMSD	| 1.006

