@<TRIPOS>MOLECULE
BindingDB_13595
 65 69 0 0 0
SMALL
NO_CHARGES


@<TRIPOS>ATOM
1    C        39.4361   45.6496   55.7576  C     
2    C        40.0400   45.1457   56.9304  C     
3    C        41.2433   44.4125   56.8557  C     
4    C        41.8506   44.1670   55.6062  C     
5    C        40.0530   45.4129   54.5106  C     
6    C        41.2365   44.6860   54.4553  C     
7    N        41.5943   44.6363   53.1725  N     
8    N        40.7280   45.2763   52.5134  N     
9    N        39.7849   45.7690   53.2332  N     
10   C        38.4796   47.7544   53.6690  C     
11   C        37.2118   48.2555   54.0825  C     
12   C        37.0951   49.3393   54.9730  C     
13   C        38.2463   49.9616   55.4799  C     
14   C        39.5123   49.5110   55.0779  C     
15   C        39.6236   48.4294   54.1859  C     
16   C        39.0249   47.1748   51.2896  C     
17   C        37.9590   47.9245   50.5546  C     
18   C        37.2373   47.3127   49.5032  C     
19   C        36.2174   48.0009   48.8268  C     
20   C        35.9033   49.3458   49.1403  C     
21   C        36.6682   49.9761   50.1520  C     
22   C        37.6823   49.2819   50.8363  C     
23   C        34.8051   50.0543   48.4055  C     
24   F        33.6848   49.2602   48.3891  F     
25   F        34.4060   51.2188   49.0222  F     
26   P        35.2249   50.4538   46.8395  P     
27   O        35.6381   49.3302   46.0376  O     
28   O        34.0436   51.0928   46.0957  O     
29   O        36.3773   51.4706   46.7797  O     
30   C        38.6740   46.5756   52.7166  C     
31   C        37.4248   45.6012   52.5924  C     
32   C        37.4750   44.4553   51.6221  C     
33   C        36.5317   44.3768   50.5684  C     
34   C        36.5774   43.3385   49.6229  C     
35   C        38.4464   42.3485   50.7983  C     
36   C        38.4043   43.3933   51.7438  C     
37   C        37.5521   42.3167   49.7017  C     
38   P        36.2411   40.3563   48.4741  P     
39   O        36.1168   39.4223   49.5684  O     
40   O        34.9630   41.2174   48.4216  O     
41   O        36.2802   39.5205   47.1761  O     
42   C        37.6254   41.2770   48.6235  C     
43   F        37.8709   41.8970   47.4170  F     
44   F        38.6770   40.4046   48.7983  F     
45   H        38.5693   46.1845   55.8213  H     
46   H        39.6066   45.3200   57.8394  H     
47   H        41.6806   44.0581   57.7095  H     
48   H        42.7237   43.6394   55.5372  H     
49   H        36.3407   47.8486   53.7459  H     
50   H        36.1714   49.6716   55.2531  H     
51   H        38.1604   50.7388   56.1379  H     
52   H        40.3554   49.9646   55.4409  H     
53   H        40.5614   48.1195   53.9270  H     
54   H        39.3649   46.3498   50.6575  H     
55   H        39.8873   47.8401   51.3660  H     
56   H        37.4538   46.3549   49.2122  H     
57   H        35.7076   47.5081   48.0905  H     
58   H        36.5036   50.9540   50.3951  H     
59   H        38.2374   49.7876   51.5309  H     
60   H        37.2016   45.1805   53.5754  H     
61   H        36.5603   46.2092   52.3266  H     
62   H        35.8008   45.0833   50.4660  H     
63   H        35.8959   43.3486   48.8585  H     
64   H        39.1443   41.6108   50.9225  H     
65   H        39.0516   43.3617   52.5322  H     
@<TRIPOS>BOND
     1    1    2 2
     2    1    5 1
     3    2    3 1
     4    3    4 2
     5    4    6 1
     6    5    6 2
     7    5    9 1
     8    6    7 1
     9    7    8 2
    10    8    9 1
    11    9   30 1
    12   10   11 1
    13   10   15 2
    14   30   10 1
    15   11   12 2
    16   12   13 1
    17   13   14 2
    18   14   15 1
    19   16   17 1
    20   16   30 1
    21   17   18 2
    22   17   22 1
    23   18   19 1
    24   19   20 2
    25   20   21 1
    26   20   23 1
    27   21   22 2
    28   23   24 1
    29   23   25 1
    30   23   26 1
    31   26   27 2
    32   26   28 1
    33   26   29 1
    34   30   31 1
    35   31   32 1
    36   32   33 1
    37   32   36 2
    38   33   34 2
    39   34   37 1
    40   35   36 1
    41   35   37 2
    42   37   42 1
    43   38   39 2
    44   38   40 1
    45   38   41 1
    46   38   42 1
    47   42   43 1
    48   42   44 1
    49    1   45 1
    50    2   46 1
    51    3   47 1
    52    4   48 1
    53   11   49 1
    54   12   50 1
    55   13   51 1
    56   14   52 1
    57   15   53 1
    58   16   54 1
    59   16   55 1
    60   18   56 1
    61   19   57 1
    62   21   58 1
    63   22   59 1
    64   31   60 1
    65   31   61 1
    66   33   62 1
    67   34   63 1
    68   35   64 1
    69   36   65 1
@<TRIPOS>PROPERTY_DATA
  Total_Score	| 15.1646
  Crash		| -1.1314
  Polar		| 9.0507
  FragIndex	| 1
  FragRMSD	| 0.256

