@<TRIPOS>MOLECULE
BindingDB_13598
 69 74 0 0 0
SMALL
NO_CHARGES


@<TRIPOS>ATOM
1    C        38.1509   50.2446   55.1485  C     
2    C        39.4275   49.7389   54.8703  C     
3    C        39.5694   48.5544   54.1264  C     
4    C        38.4366   47.8426   53.6232  C     
5    C        37.1622   48.3764   53.9347  C     
6    C        37.0151   49.5594   54.6780  C     
7    C        37.4484   45.5885   52.7162  C     
8    C        37.4734   44.4468   51.7417  C     
9    C        38.3283   43.3334   51.9405  C     
10   C        38.2713   42.2056   51.0987  C     
11   C        37.3637   42.1551   50.0106  C     
12   C        36.5452   43.2874   49.7822  C     
13   C        36.5908   44.3960   50.6411  C     
14   C        37.2414   41.0064   49.1694  C     
15   C        38.3559   40.1810   48.8634  C     
16   C        38.2295   39.0872   47.9871  C     
17   C        36.9841   38.7907   47.3994  C     
18   C        35.8601   39.5806   47.7041  C     
19   C        35.9881   40.6667   48.5846  C     
20   C        38.6606   46.6196   52.7430  C     
21   C        38.9537   47.1887   51.2862  C     
22   C        37.8599   47.9324   50.5722  C     
23   C        37.1989   47.3730   49.4529  C     
24   C        36.1574   48.0511   48.8029  C     
25   C        35.7919   49.3677   49.1731  C     
26   C        36.4853   49.9514   50.2626  C     
27   C        37.5022   49.2509   50.9395  C     
28   C        34.7337   50.1076   48.4084  C     
29   F        33.5938   49.3370   48.3483  F     
30   F        34.3511   51.2880   49.0095  F     
31   P        35.2194   50.4945   46.8572  P     
32   O        36.3184   51.4228   46.8202  O     
33   O        35.6718   49.2894   46.0121  O     
34   O        34.0728   51.1327   46.0616  O     
35   N        39.7931   45.8603   53.2749  N     
36   N        40.7331   45.3704   52.5563  N     
37   N        41.5775   44.6988   53.2118  N     
38   C        41.2024   44.7170   54.4893  C     
39   C        40.0367   45.4657   54.5505  C     
40   C        39.9691   45.1162   56.9576  C     
41   C        39.3963   45.6675   55.7892  C     
42   C        41.7803   44.1360   55.6339  C     
43   C        41.1548   44.3548   56.8768  C     
44   H        38.0419   51.1117   55.6791  H     
45   H        40.2603   50.2331   55.2100  H     
46   H        40.5148   48.2181   53.9361  H     
47   H        36.3068   47.9353   53.5932  H     
48   H        36.0810   49.9349   54.8697  H     
49   H        36.5064   46.1251   52.5663  H     
50   H        37.3696   45.1551   53.7168  H     
51   H        38.9802   43.3217   52.7317  H     
52   H        38.8728   41.3999   51.3096  H     
53   H        35.8877   43.3024   48.9920  H     
54   H        35.9365   45.1338   50.4660  H     
55   H        39.2771   40.3840   49.2650  H     
56   H        39.0454   38.5046   47.7727  H     
57   H        36.8937   38.0024   46.7572  H     
58   H        34.9480   39.3612   47.2873  H     
59   H        35.1471   41.2101   48.8064  H     
60   H        39.8161   47.8609   51.3239  H     
61   H        39.2803   46.3613   50.6599  H     
62   H        37.4866   46.4838   49.0613  H     
63   H        35.6876   47.5830   48.0210  H     
64   H        36.2682   50.9024   50.5711  H     
65   H        38.0034   49.7319   51.6910  H     
66   H        39.5217   45.2675   57.8642  H     
67   H        38.5381   46.2111   55.8567  H     
68   H        42.6314   43.5749   55.5604  H     
69   H        41.5608   43.9562   57.7284  H     
@<TRIPOS>BOND
     1    1    2 2
     2    1    6 1
     3    2    3 1
     4    3    4 2
     5    4    5 1
     6    4   20 1
     7    5    6 2
     8    7    8 1
     9    7   20 1
    10    8    9 1
    11    8   13 2
    12    9   10 2
    13   10   11 1
    14   11   12 2
    15   11   14 1
    16   12   13 1
    17   14   15 2
    18   14   19 1
    19   15   16 1
    20   16   17 2
    21   17   18 1
    22   18   19 2
    23   20   21 1
    24   20   35 1
    25   21   22 1
    26   22   23 1
    27   22   27 2
    28   23   24 2
    29   24   25 1
    30   25   26 2
    31   25   28 1
    32   26   27 1
    33   28   29 1
    34   28   30 1
    35   28   31 1
    36   31   32 2
    37   31   33 1
    38   31   34 1
    39   35   36 1
    40   35   39 1
    41   36   37 2
    42   37   38 1
    43   38   39 2
    44   38   42 1
    45   39   41 1
    46   40   41 2
    47   40   43 1
    48   42   43 2
    49    1   44 1
    50    2   45 1
    51    3   46 1
    52    5   47 1
    53    6   48 1
    54    7   49 1
    55    7   50 1
    56    9   51 1
    57   10   52 1
    58   12   53 1
    59   13   54 1
    60   15   55 1
    61   16   56 1
    62   17   57 1
    63   18   58 1
    64   19   59 1
    65   21   60 1
    66   21   61 1
    67   23   62 1
    68   24   63 1
    69   26   64 1
    70   27   65 1
    71   40   66 1
    72   41   67 1
    73   42   68 1
    74   43   69 1
@<TRIPOS>PROPERTY_DATA
  Total_Score	| 14.2542
  Crash		| -1.0129
  Polar		| 7.6747
  FragIndex	| 1
  FragRMSD	| 0.605

