@<TRIPOS>MOLECULE
BindingDB_13599
 72 77 0 0 0
SMALL
NO_CHARGES


@<TRIPOS>ATOM
1    C        38.4324   50.1718   55.4303  C     
2    C        39.6741   49.6512   55.0309  C     
3    C        39.7312   48.5306   54.1784  C     
4    C        38.5485   47.9034   53.6883  C     
5    C        37.3060   48.4613   54.1055  C     
6    C        37.2458   49.5770   54.9624  C     
7    C        37.3846   45.7803   52.6918  C     
8    C        37.4060   44.5426   51.8446  C     
9    C        38.2499   43.4479   52.1493  C     
10   C        38.2473   42.2838   51.3588  C     
11   C        37.3813   42.1622   50.2430  C     
12   C        36.5197   43.2482   49.9541  C     
13   C        36.5218   44.4072   50.7482  C     
14   C        37.3590   40.9786   49.4415  C     
15   C        38.5558   40.2994   49.1099  C     
16   C        38.5294   39.1405   48.3164  C     
17   C        37.3107   38.6481   47.8210  C     
18   C        36.0953   39.2928   48.1494  C     
19   C        36.1349   40.4523   48.9618  C     
20   C        38.6712   46.7058   52.7525  C     
21   C        38.9818   47.2524   51.2933  C     
22   C        37.9089   47.9893   50.5594  C     
23   C        37.2224   47.3757   49.4884  C     
24   C        36.1942   48.0483   48.8063  C     
25   C        35.8470   49.3831   49.1319  C     
26   C        36.5726   50.0118   50.1732  C     
27   C        37.5854   49.3300   50.8734  C     
28   C        34.7532   50.0849   48.3843  C     
29   F        33.6443   49.2685   48.2997  F     
30   F        34.3089   51.2261   49.0149  F     
31   P        35.2210   50.5211   46.8427  P     
32   O        36.3015   51.4704   46.8208  O     
33   O        35.6803   49.3358   45.9793  O     
34   O        34.0534   51.1628   46.0687  O     
35   N        39.7786   45.8828   53.2538  N     
36   N        40.7037   45.3828   52.5158  N     
37   N        41.5639   44.7158   53.1514  N     
38   C        41.2224   44.7544   54.4393  C     
39   C        40.0621   45.5104   54.5261  C     
40   C        40.0700   45.1845   56.9386  C     
41   C        39.4671   45.7329   55.7853  C     
42   C        41.8387   44.1920   55.5679  C     
43   C        41.2552   44.4241   56.8301  C     
44   P        34.6874   38.7098   47.6617  P     
45   O        34.1028   37.9492   48.7336  O     
46   O        33.6989   39.8363   47.3172  O     
47   O        34.7857   37.7689   46.4386  O     
48   H        38.3872   50.9879   56.0497  H     
49   H        40.5408   50.0762   55.3762  H     
50   H        40.6506   48.1730   53.9120  H     
51   H        36.4099   48.0645   53.7956  H     
52   H        36.3370   49.9606   55.2374  H     
53   H        36.5502   46.4004   52.3556  H     
54   H        37.1189   45.4663   53.7021  H     
55   H        38.8515   43.4680   52.9746  H     
56   H        38.8592   41.5092   51.6317  H     
57   H        35.8785   43.2099   49.1562  H     
58   H        35.8568   45.1504   50.5246  H     
59   H        39.4603   40.6487   49.4333  H     
60   H        39.4017   38.6558   48.0926  H     
61   H        37.3288   37.8039   47.2426  H     
62   H        35.2591   40.9138   49.2247  H     
63   H        39.8590   47.9029   51.3210  H     
64   H        39.2921   46.4013   50.6812  H     
65   H        37.4686   46.4314   49.1820  H     
66   H        35.7040   47.5531   48.0592  H     
67   H        36.3809   50.9843   50.4287  H     
68   H        38.1055   49.8368   51.5948  H     
69   H        39.6542   45.3493   57.8578  H     
70   H        38.6144   46.2867   55.8735  H     
71   H        42.6930   43.6362   55.4750  H     
72   H        41.6849   44.0296   57.6694  H     
@<TRIPOS>BOND
     1    1    2 2
     2    1    6 1
     3    2    3 1
     4    3    4 2
     5    4    5 1
     6    4   20 1
     7    5    6 2
     8    7    8 1
     9    7   20 1
    10    8    9 1
    11    8   13 2
    12    9   10 2
    13   10   11 1
    14   11   12 2
    15   11   14 1
    16   12   13 1
    17   14   15 2
    18   14   19 1
    19   15   16 1
    20   16   17 2
    21   17   18 1
    22   18   19 2
    23   18   44 1
    24   20   21 1
    25   20   35 1
    26   21   22 1
    27   22   23 1
    28   22   27 2
    29   23   24 2
    30   24   25 1
    31   25   26 2
    32   25   28 1
    33   26   27 1
    34   28   29 1
    35   28   30 1
    36   28   31 1
    37   31   32 2
    38   31   33 1
    39   31   34 1
    40   35   36 1
    41   35   39 1
    42   36   37 2
    43   37   38 1
    44   38   39 2
    45   38   42 1
    46   39   41 1
    47   40   41 2
    48   40   43 1
    49   42   43 2
    50   44   45 2
    51   44   46 1
    52   44   47 1
    53    1   48 1
    54    2   49 1
    55    3   50 1
    56    5   51 1
    57    6   52 1
    58    7   53 1
    59    7   54 1
    60    9   55 1
    61   10   56 1
    62   12   57 1
    63   13   58 1
    64   15   59 1
    65   16   60 1
    66   17   61 1
    67   19   62 1
    68   21   63 1
    69   21   64 1
    70   23   65 1
    71   24   66 1
    72   26   67 1
    73   27   68 1
    74   40   69 1
    75   41   70 1
    76   42   71 1
    77   43   72 1
@<TRIPOS>PROPERTY_DATA
  Total_Score	| 16.1231
  Crash		| -1.5516
  Polar		| 10.5477
  FragIndex	| 1
  FragRMSD	| 0.521

