@<TRIPOS>MOLECULE
BindingDB_13602
 80 86 0 0 0
SMALL
NO_CHARGES


@<TRIPOS>ATOM
1    C        38.3775   50.1550   55.2993  C     
2    C        39.6198   49.6328   54.9002  C     
3    C        39.6720   48.4820   54.0944  C     
4    C        38.4926   47.8182   53.6504  C     
5    C        37.2528   48.3718   54.0772  C     
6    C        37.1945   49.5181   54.8923  C     
7    C        37.3290   45.6718   52.7084  C     
8    C        37.3690   44.4256   51.8771  C     
9    C        38.1822   43.3226   52.2282  C     
10   C        38.2052   42.1536   51.4503  C     
11   C        37.3821   42.0231   50.3059  C     
12   C        36.5321   43.1065   49.9794  C     
13   C        36.5165   44.2738   50.7597  C     
14   C        37.3886   40.8314   49.5153  C     
15   C        38.5912   40.1554   49.2114  C     
16   C        36.1481   39.1674   48.1610  C     
17   C        36.1780   40.3058   49.0011  C     
18   C        38.6177   46.5942   52.7539  C     
19   C        38.9405   47.1078   51.2861  C     
20   C        37.8980   47.8872   50.5502  C     
21   C        37.1819   47.2994   49.4857  C     
22   C        36.1867   48.0102   48.7969  C     
23   C        35.8902   49.3559   49.1221  C     
24   C        36.6514   49.9668   50.1494  C     
25   C        37.6404   49.2488   50.8441  C     
26   C        34.8040   50.0854   48.3889  C     
27   F        33.6797   49.2900   48.3599  F     
28   F        34.4043   51.2453   49.0209  F     
29   P        35.2455   50.5021   46.8332  P     
30   O        36.3269   51.4494   46.7782  O     
31   O        35.6933   49.3053   45.9773  O     
32   O        34.0662   51.1328   46.0743  O     
33   N        39.7217   45.7857   53.2800  N     
34   N        40.6947   45.3359   52.5677  N     
35   N        41.5644   44.7043   53.2277  N     
36   C        41.1686   44.6982   54.5015  C     
37   C        39.9683   45.3952   54.5534  C     
38   C        39.9024   45.0365   56.9590  C     
39   C        39.3120   45.5636   55.7913  C     
40   C        41.7708   44.1522   55.6446  C     
41   C        41.1315   44.3392   56.8884  C     
42   P        34.7080   38.6442   47.6651  P     
43   O        34.0829   37.9303   48.7482  O     
44   O        33.7473   39.8056   47.3386  O     
45   O        34.7191   37.7167   46.4328  O     
46   C        38.5992   39.0171   48.3783  C     
47   C        37.3743   38.5263   47.8429  C     
48   C        39.8019   38.3480   48.0617  C     
49   C        39.7910   37.2176   47.2229  C     
50   C        38.5634   36.7505   46.7137  C     
51   N        37.4285   37.4196   47.0459  N     
52   C        38.4752   35.5470   45.8586  C     
53   H        38.3367   50.9945   55.8858  H     
54   H        40.4863   50.0871   55.2032  H     
55   H        40.5947   48.1223   53.8367  H     
56   H        36.3591   47.9580   53.7968  H     
57   H        36.2890   49.8918   55.1831  H     
58   H        36.4917   46.2851   52.3592  H     
59   H        37.0641   45.3663   53.7232  H     
60   H        38.7455   43.3462   53.0767  H     
61   H        38.8054   41.3785   51.7491  H     
62   H        35.9096   43.0556   49.1687  H     
63   H        35.8590   45.0152   50.5034  H     
64   H        39.4774   40.5099   49.5801  H     
65   H        35.3006   40.7682   49.2618  H     
66   H        39.8453   47.7221   51.2956  H     
67   H        39.2037   46.2365   50.6847  H     
68   H        37.3818   46.3411   49.1910  H     
69   H        35.6781   47.5311   48.0507  H     
70   H        36.4991   50.9467   50.3933  H     
71   H        38.1906   49.7393   51.5519  H     
72   H        39.4422   45.1586   57.8659  H     
73   H        38.4219   46.0626   55.8517  H     
74   H        42.6573   43.6468   55.5761  H     
75   H        41.5605   43.9747   57.7418  H     
76   H        40.6964   38.6723   48.4368  H     
77   H        40.6688   36.7374   46.9972  H     
78   H        39.0419   35.6944   44.9372  H     
79   H        37.4359   35.3334   45.5948  H     
80   H        38.8774   34.6837   46.3918  H     
@<TRIPOS>BOND
     1    1    2 2
     2    1    6 1
     3    2    3 1
     4    3    4 2
     5    4    5 1
     6    4   18 1
     7    5    6 2
     8    7    8 1
     9    7   18 1
    10    8    9 1
    11    8   13 2
    12    9   10 2
    13   10   11 1
    14   11   12 2
    15   11   14 1
    16   12   13 1
    17   14   15 2
    18   14   17 1
    19   15   46 1
    20   16   17 2
    21   16   42 1
    22   16   47 1
    23   18   19 1
    24   18   33 1
    25   19   20 1
    26   20   21 1
    27   20   25 2
    28   21   22 2
    29   22   23 1
    30   23   24 2
    31   23   26 1
    32   24   25 1
    33   26   27 1
    34   26   28 1
    35   26   29 1
    36   29   30 2
    37   29   31 1
    38   29   32 1
    39   33   34 1
    40   33   37 1
    41   34   35 2
    42   35   36 1
    43   36   37 2
    44   36   40 1
    45   37   39 1
    46   38   39 2
    47   38   41 1
    48   40   41 2
    49   42   43 2
    50   42   44 1
    51   42   45 1
    52   46   47 2
    53   46   48 1
    54   47   51 1
    55   48   49 2
    56   49   50 1
    57   50   51 2
    58   50   52 1
    59    1   53 1
    60    2   54 1
    61    3   55 1
    62    5   56 1
    63    6   57 1
    64    7   58 1
    65    7   59 1
    66    9   60 1
    67   10   61 1
    68   12   62 1
    69   13   63 1
    70   15   64 1
    71   17   65 1
    72   19   66 1
    73   19   67 1
    74   21   68 1
    75   22   69 1
    76   24   70 1
    77   25   71 1
    78   38   72 1
    79   39   73 1
    80   40   74 1
    81   41   75 1
    82   48   76 1
    83   49   77 1
    84   52   78 1
    85   52   79 1
    86   52   80 1
@<TRIPOS>PROPERTY_DATA
  Total_Score	| 17.5102
  Crash		| -1.8045
  Polar		| 10.5475
  FragIndex	| 1
  FragRMSD	| 0.110

