@<TRIPOS>MOLECULE
BindingDB_13601
 88 93 0 0 0
SMALL
NO_CHARGES


@<TRIPOS>ATOM
1    C        38.6541   50.4163   55.2979  C     
2    C        39.8576   49.7643   54.9903  C     
3    C        39.8529   48.5995   54.2059  C     
4    C        38.6504   48.0289   53.6976  C     
5    C        37.4465   48.7278   54.0175  C     
6    C        37.4475   49.8943   54.8023  C     
7    C        37.3968   45.9101   52.8073  C     
8    C        37.3576   44.6533   51.9935  C     
9    C        38.2255   43.5673   52.2450  C     
10   C        38.2001   42.4138   51.4418  C     
11   C        37.2932   42.2906   50.3602  C     
12   C        36.4000   43.3628   50.1301  C     
13   C        36.4205   44.5109   50.9405  C     
14   C        37.2849   41.1304   49.5255  C     
15   C        38.4917   40.4996   49.1466  C     
16   C        38.4795   39.3221   48.3845  C     
17   C        37.2637   38.7542   47.9550  C     
18   C        36.0376   39.4021   48.2620  C     
19   C        36.0662   40.5724   49.0619  C     
20   C        38.7222   46.7815   52.8167  C     
21   C        39.0599   47.2622   51.3420  C     
22   C        38.0161   47.9997   50.5689  C     
23   C        37.7700   49.3742   50.7861  C     
24   C        36.7573   50.0484   50.0826  C     
25   C        35.9526   49.3769   49.1262  C     
26   C        36.2559   48.0171   48.8594  C     
27   C        37.2844   47.3545   49.5440  C     
28   C        34.8304   50.0587   48.4010  C     
29   F        33.7187   49.2462   48.3859  F     
30   F        34.4212   51.2212   49.0192  F     
31   P        35.2205   50.4564   46.8302  P     
32   O        35.6251   49.3257   46.0432  O     
33   O        34.0300   51.0989   46.0983  O     
34   O        36.3683   51.4779   46.7741  O     
35   N        39.7938   45.9210   53.3354  N     
36   N        40.7336   45.4127   52.6213  N     
37   N        41.5584   44.7157   53.2732  N     
38   C        41.1648   44.7285   54.5459  C     
39   C        40.0195   45.5158   54.6055  C     
40   C        39.9318   45.1378   57.0097  C     
41   C        39.3891   45.7348   55.8482  C     
42   C        41.7188   44.1233   55.6844  C     
43   C        41.0866   44.3318   56.9257  C     
44   P        34.6248   38.8306   47.7671  P     
45   O        34.0341   38.0200   48.8015  O     
46   O        33.6090   39.9404   47.4155  O     
47   O        34.7508   37.9487   46.5108  O     
48   O        37.3268   37.5610   47.2748  O     
49   C        37.5367   36.3933   48.1014  C     
50   C        38.8493   35.6711   47.6986  C     
51   C        38.8525   34.9123   46.3351  C     
52   C        37.6432   33.9451   46.1734  C     
53   C        38.9777   35.8559   45.1054  C     
54   H        38.6558   51.2623   55.8647  H     
55   H        40.7400   50.1366   55.3492  H     
56   H        40.7510   48.1559   54.0004  H     
57   H        36.5432   48.4162   53.6627  H     
58   H        36.5658   50.3796   54.9986  H     
59   H        36.5752   46.5433   52.4648  H     
60   H        37.1437   45.6337   53.8338  H     
61   H        38.8721   43.5940   53.0323  H     
62   H        38.8478   41.6535   51.6637  H     
63   H        35.7450   43.3363   49.3457  H     
64   H        35.7414   45.2488   50.7462  H     
65   H        39.3958   40.8934   49.4268  H     
66   H        39.3633   38.8634   48.1527  H     
67   H        35.1838   41.0221   49.3378  H     
68   H        39.9520   47.8891   51.3620  H     
69   H        39.3423   46.3790   50.7630  H     
70   H        38.3384   49.8983   51.4557  H     
71   H        36.6129   51.0425   50.2745  H     
72   H        35.7203   47.4922   48.1598  H     
73   H        37.4885   46.3836   49.2925  H     
74   H        39.4745   45.2845   57.9130  H     
75   H        38.5621   46.3284   55.9200  H     
76   H        42.5630   43.5527   55.6073  H     
77   H        41.4604   43.8886   57.7670  H     
78   H        37.5921   36.6195   49.1768  H     
79   H        36.6934   35.7165   47.9667  H     
80   H        39.6537   36.4077   47.7007  H     
81   H        39.0807   34.9462   48.4796  H     
82   H        39.7530   34.2869   46.3382  H     
83   H        37.5346   33.3205   47.0659  H     
84   H        37.7817   33.2828   45.3178  H     
85   H        36.7142   34.5049   46.0219  H     
86   H        38.0440   36.3964   44.9395  H     
87   H        39.2076   35.2841   44.2018  H     
88   H        39.7811   36.5803   45.2589  H     
@<TRIPOS>BOND
     1    1    2 2
     2    1    6 1
     3    2    3 1
     4    3    4 2
     5    4    5 1
     6    4   20 1
     7    5    6 2
     8    7    8 1
     9    7   20 1
    10    8    9 1
    11    8   13 2
    12    9   10 2
    13   10   11 1
    14   11   12 2
    15   11   14 1
    16   12   13 1
    17   14   15 2
    18   14   19 1
    19   15   16 1
    20   16   17 2
    21   17   18 1
    22   17   48 1
    23   18   19 2
    24   18   44 1
    25   20   21 1
    26   20   35 1
    27   21   22 1
    28   22   23 1
    29   22   27 2
    30   23   24 2
    31   24   25 1
    32   25   26 2
    33   25   28 1
    34   26   27 1
    35   28   29 1
    36   28   30 1
    37   28   31 1
    38   31   32 2
    39   31   33 1
    40   31   34 1
    41   35   36 1
    42   35   39 1
    43   36   37 2
    44   37   38 1
    45   38   39 2
    46   38   42 1
    47   39   41 1
    48   40   41 2
    49   40   43 1
    50   42   43 2
    51   44   45 2
    52   44   46 1
    53   44   47 1
    54   48   49 1
    55   49   50 1
    56   50   51 1
    57   51   52 1
    58   51   53 1
    59    1   54 1
    60    2   55 1
    61    3   56 1
    62    5   57 1
    63    6   58 1
    64    7   59 1
    65    7   60 1
    66    9   61 1
    67   10   62 1
    68   12   63 1
    69   13   64 1
    70   15   65 1
    71   16   66 1
    72   19   67 1
    73   21   68 1
    74   21   69 1
    75   23   70 1
    76   24   71 1
    77   26   72 1
    78   27   73 1
    79   40   74 1
    80   41   75 1
    81   42   76 1
    82   43   77 1
    83   49   78 1
    84   49   79 1
    85   50   80 1
    86   50   81 1
    87   51   82 1
    88   52   83 1
    89   52   84 1
    90   52   85 1
    91   53   86 1
    92   53   87 1
    93   53   88 1
@<TRIPOS>PROPERTY_DATA
  Total_Score	| 17.8973
  Crash		| -2.0358
  Polar		| 10.5719
  FragIndex	| 1
  FragRMSD	| 0.173

