@<TRIPOS>MOLECULE
BindingDB_13605
 100 106 0 0 0
SMALL
NO_CHARGES


@<TRIPOS>ATOM
1    C        38.7980   50.4059   55.3769  C     
2    C        39.9818   49.7538   55.0010  C     
3    C        39.9248   48.5933   54.2061  C     
4    C        38.6917   48.0381   53.7710  C     
5    C        37.5124   48.7145   54.1916  C     
6    C        37.5618   49.8812   54.9739  C     
7    C        37.3598   45.9447   52.9764  C     
8    C        37.2665   44.6987   52.1674  C     
9    C        38.0704   43.5783   52.4701  C     
10   C        38.0519   42.4392   51.6501  C     
11   C        37.2262   42.3744   50.5024  C     
12   C        36.3582   43.4646   50.2511  C     
13   C        36.3626   44.5961   51.0879  C     
14   C        37.2597   41.2286   49.6581  C     
15   C        38.4844   40.5773   49.3797  C     
16   C        36.0847   39.4654   48.3759  C     
17   C        36.0775   40.6638   49.1320  C     
18   C        38.7034   46.7885   52.8995  C     
19   C        38.9502   47.2319   51.3900  C     
20   C        37.8860   47.9681   50.6378  C     
21   C        37.5947   49.3284   50.8966  C     
22   C        36.5967   50.0050   50.1742  C     
23   C        35.8578   49.3580   49.1522  C     
24   C        36.1749   48.0073   48.8768  C     
25   C        37.1911   47.3405   49.5797  C     
26   C        34.7703   50.0512   48.3879  C     
27   F        33.6633   49.2385   48.3358  F     
28   F        34.3326   51.2083   48.9915  F     
29   P        35.2066   50.4596   46.8300  P     
30   O        35.6099   49.3401   46.0191  O     
31   O        34.0377   51.1117   46.0720  O     
32   O        36.3632   51.4695   46.7707  O     
33   N        39.8072   45.9368   53.3681  N     
34   N        40.6891   45.4009   52.6000  N     
35   N        41.5554   44.7036   53.1963  N     
36   C        41.2610   44.7561   54.4951  C     
37   C        40.1325   45.5583   54.6259  C     
38   C        40.2130   45.2111   57.0348  C     
39   C        39.5907   45.7939   55.9070  C     
40   C        41.8962   44.1670   55.6015  C     
41   C        41.3564   44.3991   56.8831  C     
42   P        34.6694   38.9286   47.8370  P     
43   O        34.0258   38.0385   48.7643  O     
44   O        33.6495   40.0311   47.4896  O     
45   O        34.8436   38.2475   46.4785  O     
46   C        38.5180   39.3690   48.6759  C     
47   C        37.3200   38.7740   48.1756  C     
48   C        39.7382   38.6886   48.5165  C     
49   C        39.7850   37.4423   47.9010  C     
50   C        38.5886   36.8300   47.4289  C     
51   N        37.4213   37.5326   47.5893  N     
52   C        38.5872   35.3796   47.0307  C     
53   C        37.8074   34.9622   45.7375  C     
54   C        36.2955   35.3408   45.5384  C     
55   C        35.4548   35.3557   46.8426  C     
56   C        36.1585   36.6195   44.6658  C     
57   O        39.9033   34.7580   47.0284  O     
58   C        40.9262   35.1862   46.0907  C     
59   O        42.1120   35.4931   46.8487  O     
60   C        43.3569   35.4291   46.1194  C     
61   H        38.8338   51.2480   55.9598  H     
62   H        40.8840   50.1262   55.3085  H     
63   H        40.8048   48.1383   53.9670  H     
64   H        36.5848   48.3793   53.9417  H     
65   H        36.6944   50.3447   55.2572  H     
66   H        36.5324   46.5958   52.6759  H     
67   H        37.1513   45.6670   54.0127  H     
68   H        38.6698   43.5732   53.2900  H     
69   H        38.6595   41.6543   51.9062  H     
70   H        35.7311   43.4573   49.4428  H     
71   H        35.7131   45.3547   50.8763  H     
72   H        39.3612   40.9833   49.7262  H     
73   H        35.1873   41.1205   49.3497  H     
74   H        39.8502   47.8470   51.3299  H     
75   H        39.1945   46.3293   50.8220  H     
76   H        38.1252   49.8462   51.5976  H     
77   H        36.4165   50.9847   50.4040  H     
78   H        35.6693   47.4932   48.1519  H     
79   H        37.4113   46.3798   49.3108  H     
80   H        39.8257   45.3718   57.9677  H     
81   H        38.7672   46.3834   56.0296  H     
82   H        42.7256   43.5839   55.4726  H     
83   H        41.8021   43.9830   57.7027  H     
84   H        40.6165   39.0865   48.8895  H     
85   H        40.6909   36.9699   47.8704  H     
86   H        38.1024   34.8671   47.8602  H     
87   H        38.3822   35.3267   44.8767  H     
88   H        37.8573   33.8658   45.6870  H     
89   H        35.8462   34.5467   44.9263  H     
90   H        35.4299   34.3498   47.2793  H     
91   H        34.4266   35.6649   46.6298  H     
92   H        35.8883   36.0356   47.5888  H     
93   H        36.7805   37.4290   45.0550  H     
94   H        35.1182   36.9535   44.6160  H     
95   H        36.4944   36.4172   43.6464  H     
96   H        41.1302   34.3704   45.3876  H     
97   H        40.6305   36.0744   45.5306  H     
98   H        43.6790   34.3821   46.0386  H     
99   H        44.1156   35.9892   46.6819  H     
100  H        43.2673   35.8720   45.1179  H     
@<TRIPOS>BOND
     1    1    2 2
     2    1    6 1
     3    2    3 1
     4    3    4 2
     5    4    5 1
     6    4   18 1
     7    5    6 2
     8    7    8 1
     9    7   18 1
    10    8    9 1
    11    8   13 2
    12    9   10 2
    13   10   11 1
    14   11   12 2
    15   11   14 1
    16   12   13 1
    17   14   15 2
    18   14   17 1
    19   15   46 1
    20   16   17 2
    21   16   42 1
    22   16   47 1
    23   18   19 1
    24   18   33 1
    25   19   20 1
    26   20   21 1
    27   20   25 2
    28   21   22 2
    29   22   23 1
    30   23   24 2
    31   23   26 1
    32   24   25 1
    33   26   27 1
    34   26   28 1
    35   26   29 1
    36   29   30 2
    37   29   31 1
    38   29   32 1
    39   33   34 1
    40   33   37 1
    41   34   35 2
    42   35   36 1
    43   36   37 2
    44   36   40 1
    45   37   39 1
    46   38   39 2
    47   38   41 1
    48   40   41 2
    49   42   43 2
    50   42   44 1
    51   42   45 1
    52   46   47 2
    53   46   48 1
    54   47   51 1
    55   48   49 2
    56   49   50 1
    57   50   51 2
    58   50   52 1
    59   52   53 1
    60   52   57 1
    61   53   54 1
    62   54   55 1
    63   54   56 1
    64   57   58 1
    65   58   59 1
    66   59   60 1
    67    1   61 1
    68    2   62 1
    69    3   63 1
    70    5   64 1
    71    6   65 1
    72    7   66 1
    73    7   67 1
    74    9   68 1
    75   10   69 1
    76   12   70 1
    77   13   71 1
    78   15   72 1
    79   17   73 1
    80   19   74 1
    81   19   75 1
    82   21   76 1
    83   22   77 1
    84   24   78 1
    85   25   79 1
    86   38   80 1
    87   39   81 1
    88   40   82 1
    89   41   83 1
    90   48   84 1
    91   49   85 1
    92   52   86 1
    93   53   87 1
    94   53   88 1
    95   54   89 1
    96   55   90 1
    97   55   91 1
    98   55   92 1
    99   56   93 1
   100   56   94 1
   101   56   95 1
   102   58   96 1
   103   58   97 1
   104   60   98 1
   105   60   99 1
   106   60  100 1
@<TRIPOS>PROPERTY_DATA
  Total_Score	| 19.4235
  Crash		| -2.7180
  Polar		| 10.6069
  FragIndex	| 1
  FragRMSD	| 0.248

