@<TRIPOS>MOLECULE
BindingDB_13603
 93 99 0 0 0
SMALL
NO_CHARGES


@<TRIPOS>ATOM
1    C        38.5511   50.2569   55.4363  C     
2    C        39.7729   49.6639   55.0818  C     
3    C        39.7849   48.5360   54.2417  C     
4    C        38.5899   47.9532   53.7352  C     
5    C        37.3705   48.5867   54.1152  C     
6    C        37.3495   49.7177   54.9512  C     
7    C        37.3854   45.8202   52.8067  C     
8    C        37.4004   44.5731   51.9774  C     
9    C        36.5048   44.4240   50.8955  C     
10   C        36.5366   43.2858   50.0763  C     
11   C        37.4256   42.2124   50.3394  C     
12   C        38.2843   42.3347   51.4599  C     
13   C        38.2644   43.4872   52.2641  C     
14   C        37.3996   41.0211   49.5409  C     
15   C        38.5804   40.2909   49.2491  C     
16   C        36.1027   39.3625   48.2290  C     
17   C        36.1724   40.5241   49.0356  C     
18   C        38.6863   46.7312   52.8261  C     
19   C        38.9910   47.2448   51.3536  C     
20   C        37.9284   47.9697   50.5909  C     
21   C        37.5905   49.3117   50.8782  C     
22   C        36.5884   49.9821   50.1521  C     
23   C        35.8625   49.3281   49.1248  C     
24   C        36.2289   47.9965   48.8125  C     
25   C        37.2475   47.3382   49.5232  C     
26   C        34.7579   50.0097   48.3729  C     
27   F        33.6663   49.1739   48.2918  F     
28   F        34.3001   51.1491   48.9967  F     
29   P        35.2070   50.4467   46.8295  P     
30   O        35.6293   49.3298   46.0253  O     
31   O        34.0337   51.0959   46.0723  O     
32   O        36.3563   51.4656   46.8119  O     
33   N        39.7944   45.8981   53.3155  N     
34   N        40.6998   45.3814   52.5653  N     
35   N        41.5692   44.7136   53.1911  N     
36   C        41.2393   44.7537   54.4821  C     
37   C        40.0899   45.5274   54.5826  C     
38   C        40.1114   45.1869   56.9893  C     
39   C        39.5069   45.7540   55.8464  C     
40   C        41.8611   44.1843   55.6027  C     
41   C        41.2828   44.4059   56.8689  C     
42   P        34.6660   38.8601   47.7227  P     
43   O        33.7330   39.9210   47.4374  O     
44   O        34.7686   38.0522   46.4173  O     
45   O        34.0129   37.9742   48.7998  O     
46   C        38.5379   39.1091   48.4682  C     
47   C        37.2947   38.6439   47.9535  C     
48   C        39.7110   38.3667   48.1823  C     
49   C        39.6452   37.2125   47.3719  C     
50   C        38.3915   36.8061   46.8444  C     
51   N        37.2803   37.5219   47.1758  N     
52   C        38.2463   35.7002   45.8598  C     
53   O        39.3810   35.6504   44.9898  O     
54   C        38.0128   34.2805   46.4648  C     
55   C        36.7527   34.1027   47.3709  C     
56   C        35.4195   34.3188   46.6032  C     
57   C        36.7547   32.7063   48.0563  C     
58   H        38.5346   51.0794   56.0452  H     
59   H        40.6525   50.0565   55.4313  H     
60   H        40.6912   48.1264   54.0145  H     
61   H        36.4661   48.2421   53.7905  H     
62   H        36.4579   50.1506   55.2036  H     
63   H        36.5511   46.4413   52.4657  H     
64   H        37.1321   45.5262   53.8287  H     
65   H        35.8134   45.1404   50.6842  H     
66   H        35.9005   43.2477   49.2736  H     
67   H        38.9180   41.5727   51.7195  H     
68   H        38.8705   43.5160   53.0860  H     
69   H        39.4910   40.6311   49.5813  H     
70   H        35.3119   41.0222   49.2768  H     
71   H        39.8690   47.8954   51.3632  H     
72   H        39.2957   46.3803   50.7617  H     
73   H        38.0980   49.8324   51.5949  H     
74   H        36.3814   50.9540   50.3955  H     
75   H        35.7383   47.4844   48.0750  H     
76   H        37.4969   46.3884   49.2360  H     
77   H        39.6994   45.3445   57.9123  H     
78   H        38.6650   46.3196   55.9403  H     
79   H        42.7093   43.6206   55.5010  H     
80   H        41.7143   44.0029   57.7021  H     
81   H        40.6275   38.6791   48.5366  H     
82   H        40.5134   36.7099   47.1359  H     
83   H        37.4009   35.9365   45.2072  H     
84   H        39.0663   35.1806   44.1870  H     
85   H        37.9333   33.5700   45.6325  H     
86   H        38.9046   33.9977   47.0414  H     
87   H        36.8041   34.8474   48.1750  H     
88   H        35.3179   35.3742   46.3180  H     
89   H        34.5642   34.0443   47.2336  H     
90   H        35.3973   33.6964   45.6975  H     
91   H        36.6904   31.9063   47.3076  H     
92   H        35.9026   32.6114   48.7360  H     
93   H        37.6662   32.5611   48.6451  H     
@<TRIPOS>BOND
     1    1    2 2
     2    1    6 1
     3    2    3 1
     4    3    4 2
     5    4    5 1
     6    4   18 1
     7    5    6 2
     8    7    8 1
     9    7   18 1
    10    8    9 1
    11    8   13 2
    12    9   10 2
    13   10   11 1
    14   11   12 2
    15   11   14 1
    16   12   13 1
    17   14   15 2
    18   14   17 1
    19   15   46 1
    20   16   17 2
    21   16   42 1
    22   16   47 1
    23   18   19 1
    24   18   33 1
    25   19   20 1
    26   20   21 1
    27   20   25 2
    28   21   22 2
    29   22   23 1
    30   23   24 2
    31   23   26 1
    32   24   25 1
    33   26   27 1
    34   26   28 1
    35   26   29 1
    36   29   30 2
    37   29   31 1
    38   29   32 1
    39   33   34 1
    40   33   37 1
    41   34   35 2
    42   35   36 1
    43   36   37 2
    44   36   40 1
    45   37   39 1
    46   38   39 2
    47   38   41 1
    48   40   41 2
    49   42   43 2
    50   42   44 1
    51   42   45 1
    52   46   47 2
    53   46   48 1
    54   47   51 1
    55   48   49 2
    56   49   50 1
    57   50   51 2
    58   50   52 1
    59   52   53 1
    60   52   54 1
    61   54   55 1
    62   55   56 1
    63   55   57 1
    64    1   58 1
    65    2   59 1
    66    3   60 1
    67    5   61 1
    68    6   62 1
    69    7   63 1
    70    7   64 1
    71    9   65 1
    72   10   66 1
    73   12   67 1
    74   13   68 1
    75   15   69 1
    76   17   70 1
    77   19   71 1
    78   19   72 1
    79   21   73 1
    80   22   74 1
    81   24   75 1
    82   25   76 1
    83   38   77 1
    84   39   78 1
    85   40   79 1
    86   41   80 1
    87   48   81 1
    88   49   82 1
    89   52   83 1
    90   53   84 1
    91   54   85 1
    92   54   86 1
    93   55   87 1
    94   56   88 1
    95   56   89 1
    96   56   90 1
    97   57   91 1
    98   57   92 1
    99   57   93 1
@<TRIPOS>PROPERTY_DATA
  Total_Score	| 19.0300
  Crash		| -2.1385
  Polar		| 11.1776
  FragIndex	| 1
  FragRMSD	| 0.522

