@<TRIPOS>MOLECULE
BindingDB_13604
 96 102 0 0 0
SMALL
NO_CHARGES


@<TRIPOS>ATOM
1    C        38.5647   50.2300   55.2969  C     
2    C        39.7827   49.6353   54.9340  C     
3    C        39.7882   48.4762   54.1415  C     
4    C        38.5901   47.8696   53.6743  C     
5    C        37.3723   48.4902   54.0770  C     
6    C        37.3582   49.6505   54.8689  C     
7    C        37.3661   45.7375   52.7836  C     
8    C        37.3624   44.4897   51.9569  C     
9    C        38.1947   43.3915   52.2658  C     
10   C        38.1969   42.2311   51.4732  C     
11   C        37.3508   42.1141   50.3436  C     
12   C        36.4838   43.1950   50.0611  C     
13   C        36.4720   44.3451   50.8652  C     
14   C        37.3695   40.9474   49.5194  C     
15   C        38.5838   40.2916   49.2224  C     
16   C        36.1699   39.2792   48.1333  C     
17   C        36.1737   40.4160   48.9764  C     
18   C        38.6758   46.6323   52.7879  C     
19   C        38.9730   47.1157   51.3009  C     
20   C        37.9241   47.8823   50.5591  C     
21   C        37.6325   49.2327   50.8674  C     
22   C        36.6298   49.9353   50.1753  C     
23   C        35.8782   49.3189   49.1449  C     
24   C        36.1995   47.9803   48.8129  C     
25   C        37.2166   47.2870   49.4896  C     
26   C        34.7804   50.0331   48.4162  C     
27   F        33.6631   49.2330   48.3732  F     
28   F        34.3738   51.1908   49.0483  F     
29   P        35.2001   50.4569   46.8584  P     
30   O        34.1085   51.0754   46.1526  O     
31   O        36.3723   51.4518   46.8164  O     
32   O        35.6339   49.2615   45.9882  O     
33   N        39.7790   45.8081   53.2989  N     
34   N        40.6997   45.2920   52.5669  N     
35   N        41.5638   44.6383   53.2116  N     
36   C        41.2246   44.6984   54.4989  C     
37   C        40.0620   45.4565   54.5742  C     
38   C        40.0723   45.1662   56.9903  C     
39   C        39.4673   45.6999   55.8296  C     
40   C        41.8442   44.1587   55.6372  C     
41   C        41.2557   44.4037   56.8957  C     
42   P        34.7580   38.7189   47.6044  P     
43   O        33.8195   39.7594   47.2624  O     
44   O        34.8393   37.7697   46.3913  O     
45   O        34.1081   37.9147   48.7400  O     
46   C        38.6110   39.1347   48.4180  C     
47   C        37.4048   38.6318   47.8611  C     
48   C        39.8203   38.4550   48.1603  C     
49   C        39.8274   37.3039   47.3531  C     
50   C        38.6149   36.8144   46.8221  C     
51   N        37.4798   37.5088   47.0942  N     
52   C        38.5523   35.6089   45.9532  C     
53   C        37.6547   34.4340   46.4605  C     
54   C        37.6675   34.0133   47.9749  C     
55   C        39.0431   34.1650   48.6798  C     
56   C        36.5500   34.6915   48.8210  C     
57   O        38.2651   35.9636   44.5787  O     
58   C        36.9808   36.4965   44.2010  C     
59   H        38.5566   51.0776   55.8679  H     
60   H        40.6648   50.0427   55.2531  H     
61   H        40.6922   48.0606   53.9104  H     
62   H        36.4676   48.1200   53.7899  H     
63   H        36.4696   50.0806   55.1356  H     
64   H        36.5369   46.3641   52.4469  H     
65   H        37.1214   45.4457   53.8053  H     
66   H        38.8017   43.4164   53.0876  H     
67   H        38.8165   41.4612   51.7426  H     
68   H        35.8552   43.1621   49.2537  H     
69   H        35.8084   45.0886   50.6369  H     
70   H        39.4648   40.6619   49.5888  H     
71   H        35.2857   40.8690   49.2214  H     
72   H        39.8800   47.7254   51.2844  H     
73   H        39.2222   46.2283   50.7144  H     
74   H        38.1659   49.7256   51.5876  H     
75   H        36.4553   50.9092   50.4373  H     
76   H        35.6936   47.4935   48.0720  H     
77   H        37.4355   46.3358   49.1882  H     
78   H        39.6509   45.3384   57.9069  H     
79   H        38.6176   46.2552   55.9093  H     
80   H        42.7027   43.6101   55.5514  H     
81   H        41.6906   44.0265   57.7401  H     
82   H        40.7031   38.7896   48.5549  H     
83   H        40.7175   36.8278   47.1680  H     
84   H        39.5606   35.1885   45.8985  H     
85   H        36.6167   34.6316   46.1849  H     
86   H        37.9491   33.5495   45.8760  H     
87   H        37.4336   32.9390   47.9971  H     
88   H        39.8395   33.7447   48.0636  H     
89   H        39.0348   33.6397   49.6363  H     
90   H        39.2678   35.2175   48.8695  H     
91   H        36.7151   35.7667   48.8983  H     
92   H        36.5346   34.2754   49.8282  H     
93   H        35.5710   34.5203   48.3708  H     
94   H        36.1716   35.7950   44.4150  H     
95   H        36.9886   36.6755   43.1261  H     
96   H        36.7838   37.4426   44.6999  H     
@<TRIPOS>BOND
     1    1    2 2
     2    1    6 1
     3    2    3 1
     4    3    4 2
     5    4    5 1
     6    4   18 1
     7    5    6 2
     8    7    8 1
     9    7   18 1
    10    8    9 1
    11    8   13 2
    12    9   10 2
    13   10   11 1
    14   11   12 2
    15   11   14 1
    16   12   13 1
    17   14   15 2
    18   14   17 1
    19   15   46 1
    20   16   17 2
    21   16   42 1
    22   16   47 1
    23   18   19 1
    24   18   33 1
    25   19   20 1
    26   20   21 1
    27   20   25 2
    28   21   22 2
    29   22   23 1
    30   23   24 2
    31   23   26 1
    32   24   25 1
    33   26   27 1
    34   26   28 1
    35   26   29 1
    36   29   30 2
    37   29   31 1
    38   29   32 1
    39   33   34 1
    40   33   37 1
    41   34   35 2
    42   35   36 1
    43   36   37 2
    44   36   40 1
    45   37   39 1
    46   38   39 2
    47   38   41 1
    48   40   41 2
    49   42   43 2
    50   42   44 1
    51   42   45 1
    52   46   47 2
    53   46   48 1
    54   47   51 1
    55   48   49 2
    56   49   50 1
    57   50   51 2
    58   50   52 1
    59   52   53 1
    60   52   57 1
    61   53   54 1
    62   54   55 1
    63   54   56 1
    64   57   58 1
    65    1   59 1
    66    2   60 1
    67    3   61 1
    68    5   62 1
    69    6   63 1
    70    7   64 1
    71    7   65 1
    72    9   66 1
    73   10   67 1
    74   12   68 1
    75   13   69 1
    76   15   70 1
    77   17   71 1
    78   19   72 1
    79   19   73 1
    80   21   74 1
    81   22   75 1
    82   24   76 1
    83   25   77 1
    84   38   78 1
    85   39   79 1
    86   40   80 1
    87   41   81 1
    88   48   82 1
    89   49   83 1
    90   52   84 1
    91   53   85 1
    92   53   86 1
    93   54   87 1
    94   55   88 1
    95   55   89 1
    96   55   90 1
    97   56   91 1
    98   56   92 1
    99   56   93 1
   100   58   94 1
   101   58   95 1
   102   58   96 1
@<TRIPOS>PROPERTY_DATA
  Total_Score	| 18.6526
  Crash		| -2.2610
  Polar		| 10.4073
  FragIndex	| 1
  FragRMSD	| 0.711

