@<TRIPOS>MOLECULE
BindingDB_13600
 76 81 0 0 0
SMALL
NO_CHARGES


@<TRIPOS>ATOM
1    C        38.6018   50.3109   55.2202  C     
2    C        39.8079   49.6934   54.8754  C     
3    C        39.8007   48.5165   54.1070  C     
4    C        38.5923   47.9182   53.6490  C     
5    C        37.3800   48.5627   54.0331  C     
6    C        37.3834   49.7457   54.7919  C     
7    C        37.3542   45.7800   52.7599  C     
8    C        37.3441   44.5452   51.9011  C     
9    C        36.4325   44.4021   50.8263  C     
10   C        36.4416   43.2591   50.0038  C     
11   C        37.3394   42.1981   50.2485  C     
12   C        38.2162   42.3093   51.3519  C     
13   C        38.2084   43.4623   52.1642  C     
14   C        37.3416   41.0285   49.4264  C     
15   C        38.5516   40.3858   49.0923  C     
16   C        38.5633   39.2227   48.3021  C     
17   C        37.3558   38.6461   47.8213  C     
18   C        36.1233   39.2718   48.1579  C     
19   C        36.1340   40.4517   48.9479  C     
20   C        38.6654   46.6770   52.7718  C     
21   C        38.9651   47.1663   51.2890  C     
22   C        37.9151   47.9321   50.5455  C     
23   C        37.1961   47.3295   49.4881  C     
24   C        36.1825   48.0239   48.8067  C     
25   C        35.8820   49.3737   49.1130  C     
26   C        36.6602   50.0002   50.1165  C     
27   C        37.6599   49.2941   50.8147  C     
28   C        34.7799   50.0901   48.3922  C     
29   F        33.6593   49.2935   48.3526  F     
30   F        34.3835   51.2500   49.0231  F     
31   P        35.1909   50.5025   46.8305  P     
32   O        34.0883   51.0941   46.1184  O     
33   O        36.3493   51.5114   46.7735  O     
34   O        35.6383   49.3023   45.9784  O     
35   N        39.7619   45.8427   53.2841  N     
36   N        40.7019   45.3544   52.5574  N     
37   N        41.5502   44.6833   53.2022  N     
38   C        41.1822   44.7011   54.4830  C     
39   C        40.0188   45.4522   54.5534  C     
40   C        39.9688   45.0863   56.9585  C     
41   C        39.3923   45.6541   55.8035  C     
42   C        41.7733   44.1212   55.6149  C     
43   C        41.1552   44.3255   56.8657  C     
44   P        34.6902   38.6889   47.7076  P     
45   O        34.0812   37.9880   48.8068  O     
46   O        33.7426   39.8522   47.3785  O     
47   O        34.6692   37.7312   46.5010  O     
48   O        37.3501   37.4660   47.0929  O     
49   C        38.5764   36.7805   46.7748  C     
50   H        38.6026   51.1825   55.7499  H     
51   H        40.6997   50.0904   55.1908  H     
52   H        40.6970   48.0835   53.8852  H     
53   H        36.4668   48.2020   53.7428  H     
54   H        36.5024   50.2063   55.0259  H     
55   H        36.5205   46.4145   52.4519  H     
56   H        37.1192   45.4643   53.7813  H     
57   H        35.7505   45.1323   50.6248  H     
58   H        35.7805   43.2171   49.2236  H     
59   H        38.8464   41.5417   51.6007  H     
60   H        38.8299   43.4756   52.9729  H     
61   H        39.4474   40.7623   49.4205  H     
62   H        39.4686   38.7913   48.0799  H     
63   H        35.2445   40.8978   49.2130  H     
64   H        39.8734   47.7761   51.2816  H     
65   H        39.2179   46.2791   50.7071  H     
66   H        37.4073   46.3740   49.1978  H     
67   H        35.6679   47.5306   48.0723  H     
68   H        36.5121   50.9829   50.3490  H     
69   H        38.2101   49.7924   51.5156  H     
70   H        39.5253   45.2262   57.8701  H     
71   H        38.5384   46.2062   55.8795  H     
72   H        42.6267   43.5652   55.5316  H     
73   H        41.5638   43.9106   57.7105  H     
74   H        39.2891   37.4479   46.2792  H     
75   H        38.3564   35.9546   46.0999  H     
76   H        39.0381   36.3636   47.6735  H     
@<TRIPOS>BOND
     1    1    2 2
     2    1    6 1
     3    2    3 1
     4    3    4 2
     5    4    5 1
     6    4   20 1
     7    5    6 2
     8    7    8 1
     9    7   20 1
    10    8    9 1
    11    8   13 2
    12    9   10 2
    13   10   11 1
    14   11   12 2
    15   11   14 1
    16   12   13 1
    17   14   15 2
    18   14   19 1
    19   15   16 1
    20   16   17 2
    21   17   18 1
    22   17   48 1
    23   18   19 2
    24   18   44 1
    25   20   21 1
    26   20   35 1
    27   21   22 1
    28   22   23 1
    29   22   27 2
    30   23   24 2
    31   24   25 1
    32   25   26 2
    33   25   28 1
    34   26   27 1
    35   28   29 1
    36   28   30 1
    37   28   31 1
    38   31   32 2
    39   31   33 1
    40   31   34 1
    41   35   36 1
    42   35   39 1
    43   36   37 2
    44   37   38 1
    45   38   39 2
    46   38   42 1
    47   39   41 1
    48   40   41 2
    49   40   43 1
    50   42   43 2
    51   44   45 2
    52   44   46 1
    53   44   47 1
    54   48   49 1
    55    1   50 1
    56    2   51 1
    57    3   52 1
    58    5   53 1
    59    6   54 1
    60    7   55 1
    61    7   56 1
    62    9   57 1
    63   10   58 1
    64   12   59 1
    65   13   60 1
    66   15   61 1
    67   16   62 1
    68   19   63 1
    69   21   64 1
    70   21   65 1
    71   23   66 1
    72   24   67 1
    73   26   68 1
    74   27   69 1
    75   40   70 1
    76   41   71 1
    77   42   72 1
    78   43   73 1
    79   49   74 1
    80   49   75 1
    81   49   76 1
@<TRIPOS>PROPERTY_DATA
  Total_Score	| 16.3444
  Crash		| -1.7305
  Polar		| 10.5155
  FragIndex	| 1
  FragRMSD	| 0.581

