@<TRIPOS>MOLECULE
BindingDB_29026
 39 41 0 0 0
SMALL
NO_CHARGES


@<TRIPOS>ATOM
1    C         4.8114  -35.2038   -1.1600  C     
2    C         5.6898  -34.2151   -0.6847  C     
3    C         6.8226  -33.8154   -1.4374  C     
4    C         7.0396  -34.4763   -2.6720  C     
5    C         6.1664  -35.4736   -3.1383  C     
6    C         5.0125  -35.8377   -2.4062  C     
7    C         7.7008  -32.7835   -0.9863  C     
8    N         4.0664  -36.7483   -2.7982  N     
9    C         3.8315  -37.3456   -3.9633  C     
10   C         2.7616  -38.1856   -4.0786  C     
11   O         4.5087  -37.1227   -4.9620  O     
12   C         2.7087  -39.3638   -3.4089  C     
13   C         1.8132  -37.7365   -4.8043  C     
14   N         0.9766  -37.2941   -5.4565  N     
15   C         1.6649  -40.3941   -3.4054  C     
16   O         3.7583  -39.6978   -2.6563  O     
17   C         8.1270  -32.7056    0.3664  C     
18   C         8.9719  -31.6708    0.8072  C     
19   C         9.4182  -30.6917   -0.1006  C     
20   C         9.0054  -30.7415   -1.4422  C     
21   C         8.1594  -31.7713   -1.8789  C     
22   C         0.5512  -40.1440   -2.3626  C     
23   C         0.1755  -40.3329   -3.8388  C     
24   H         3.9934  -35.4319   -0.5917  H     
25   H         5.4758  -33.7742    0.2125  H     
26   H         7.8647  -34.2633   -3.2363  H     
27   H         6.3805  -35.9389   -4.0220  H     
28   H         3.4324  -36.9783   -2.1018  H     
29   H         2.0421  -41.4211   -3.3681  H     
30   H         4.3427  -40.2068   -3.2545  H     
31   H         7.8404  -33.4054    1.0600  H     
32   H         9.2611  -31.6262    1.7881  H     
33   H        10.0309  -29.9397    0.2157  H     
34   H         9.3092  -30.0182   -2.1003  H     
35   H         7.8729  -31.7646   -2.8623  H     
36   H         0.3026  -40.9802   -1.7116  H     
37   H         0.4059  -39.1307   -1.9904  H     
38   H        -0.2266  -39.4390   -4.3073  H     
39   H        -0.3412  -41.2712   -4.0367  H     
@<TRIPOS>BOND
     1    1    2 1
     2    1    6 2
     3    2    3 2
     4    3    4 1
     5    3    7 1
     6    4    5 2
     7    5    6 1
     8    6    8 1
     9    7   17 2
    10    7   21 1
    11    8    9 am
    12    9   10 1
    13    9   11 2
    14   10   12 2
    15   10   13 1
    16   12   15 1
    17   12   16 1
    18   13   14 3
    19   15   22 1
    20   15   23 1
    21   17   18 1
    22   18   19 2
    23   19   20 1
    24   20   21 2
    25   22   23 1
    26    1   24 1
    27    2   25 1
    28    4   26 1
    29    5   27 1
    30    8   28 1
    31   15   29 1
    32   16   30 1
    33   17   31 1
    34   18   32 1
    35   19   33 1
    36   20   34 1
    37   21   35 1
    38   22   36 1
    39   22   37 1
    40   23   38 1
    41   23   39 1
@<TRIPOS>PROPERTY_DATA
  Total_Score	| 6.7998
  Crash		| -2.0008
  Polar		| 2.2015
  FragIndex	| 1
  FragRMSD	| 0.354

