@<TRIPOS>MOLECULE
BindingDB_29039
 42 43 0 0 0
SMALL
NO_CHARGES


@<TRIPOS>ATOM
1    C         6.1906  -35.4020   -3.1038  C     
2    C         7.0891  -34.4223   -2.6377  C     
3    C         6.8716  -33.7506   -1.4088  C     
4    C         5.7184  -34.1055   -0.6636  C     
5    C         4.8227  -35.0821   -1.1310  C     
6    C         5.0376  -35.7410   -2.3592  C     
7    C         7.7668  -32.7397   -0.9360  C     
8    N         4.1116  -36.6906   -2.6973  N     
9    C         3.8825  -37.3507   -3.8279  C     
10   C         2.8306  -38.2078   -3.8704  C     
11   O         4.5101  -37.1633   -4.8628  O     
12   C         1.7193  -37.9432   -4.6037  C     
13   C         2.9072  -39.2735   -3.1664  C     
14   N         2.9648  -40.2329   -2.5399  N     
15   C         0.5215  -38.7812   -4.6079  C     
16   O         1.6960  -36.9098   -5.4470  O     
17   C         8.1967  -32.7107    0.4149  C     
18   C         9.0528  -31.6991    0.8827  C     
19   C         9.5088  -30.7051    0.0043  C     
20   C         9.1321  -30.7319   -1.3507  C     
21   C         8.2482  -31.7308   -1.8051  C     
22   O         9.5347  -29.7463   -2.2073  O     
23   C        10.9595  -29.6420   -2.4185  C     
24   C        11.5672  -30.8187   -3.2207  C     
25   H         6.4110  -35.8847   -3.9761  H     
26   H         7.9163  -34.2115   -3.2041  H     
27   H         5.5069  -33.6385    0.2237  H     
28   H         3.9928  -35.2952   -0.5686  H     
29   H         3.4871  -36.8999   -1.9845  H     
30   H         0.7661  -39.7778   -4.9865  H     
31   H        -0.2654  -38.3650   -5.2416  H     
32   H         0.1165  -38.8704   -3.5984  H     
33   H         1.8392  -36.0939   -4.9201  H     
34   H         7.8806  -33.4249    1.0786  H     
35   H         9.3510  -31.6946    1.8570  H     
36   H        10.1184  -29.9615    0.3506  H     
37   H         7.9381  -31.7029   -2.7789  H     
38   H        11.1225  -28.7265   -2.9938  H     
39   H        11.4957  -29.5284   -1.4718  H     
40   H        11.5199  -31.7390   -2.6334  H     
41   H        12.6105  -30.6119   -3.4566  H     
42   H        11.0143  -30.9656   -4.1510  H     
@<TRIPOS>BOND
     1    1    2 1
     2    1    6 2
     3    2    3 2
     4    3    4 1
     5    3    7 1
     6    4    5 2
     7    5    6 1
     8    6    8 1
     9    7   17 2
    10    7   21 1
    11    8    9 am
    12    9   10 1
    13    9   11 2
    14   10   12 2
    15   10   13 1
    16   12   15 1
    17   12   16 1
    18   13   14 3
    19   17   18 1
    20   18   19 2
    21   19   20 1
    22   20   21 2
    23   20   22 1
    24   22   23 1
    25   23   24 1
    26    1   25 1
    27    2   26 1
    28    4   27 1
    29    5   28 1
    30    8   29 1
    31   15   30 1
    32   15   31 1
    33   15   32 1
    34   16   33 1
    35   17   34 1
    36   18   35 1
    37   19   36 1
    38   21   37 1
    39   23   38 1
    40   23   39 1
    41   24   40 1
    42   24   41 1
    43   24   42 1
@<TRIPOS>PROPERTY_DATA
  Total_Score	| 6.4008
  Crash		| -2.6433
  Polar		| 3.7123
  FragIndex	| 1
  FragRMSD	| 1.386

