@<TRIPOS>MOLECULE
BindingDB_29038
 35 36 0 0 0
SMALL
NO_CHARGES


@<TRIPOS>ATOM
1    C         5.0607  -35.1517   -0.9408  C     
2    C         5.9782  -34.1754   -0.5171  C     
3    C         6.9867  -33.6884   -1.3830  C     
4    C         7.0593  -34.2378   -2.6839  C     
5    C         6.1522  -35.2314   -3.0991  C     
6    C         5.1231  -35.6964   -2.2482  C     
7    C         7.8840  -32.6746   -0.9354  C     
8    N         4.1840  -36.6441   -2.5904  N     
9    C         3.9151  -37.3093   -3.7179  C     
10   C         2.8452  -38.1439   -3.7331  C     
11   O         4.5085  -37.1420   -4.7775  O     
12   C         1.7653  -37.9377   -4.5380  C     
13   C         2.8693  -39.1518   -2.9462  C     
14   N         2.8858  -40.0575   -2.2401  N     
15   C         0.5587  -38.7669   -4.5279  C     
16   O         1.7647  -36.9421   -5.4286  O     
17   C         8.3597  -32.6465    0.4021  C     
18   C         9.2059  -31.6151    0.8494  C     
19   C         9.5979  -30.5953   -0.0352  C     
20   C         9.1296  -30.5970   -1.3587  C     
21   C         8.2840  -31.6314   -1.8072  C     
22   Cl        3.9025  -35.6434    0.1968  Cl    
23   H         5.9028  -33.7963    0.4317  H     
24   H         7.8056  -33.9456   -3.3231  H     
25   H         6.2853  -35.6112   -4.0318  H     
26   H         3.5648  -36.8443   -1.8691  H     
27   H         0.8045  -39.8027   -4.7965  H     
28   H        -0.1919  -38.4048   -5.2340  H     
29   H         0.1015  -38.7584   -3.5314  H     
30   H         1.8778  -36.1019   -4.9327  H     
31   H         8.0974  -33.3792    1.0655  H     
32   H         9.5352  -31.6016    1.8186  H     
33   H        10.2191  -29.8459    0.2854  H     
34   H         9.3931  -29.8408   -1.9950  H     
35   H         7.9420  -31.5971   -2.7721  H     
@<TRIPOS>BOND
     1    1    2 1
     2    1    6 2
     3    1   22 1
     4    2    3 2
     5    3    4 1
     6    3    7 1
     7    4    5 2
     8    5    6 1
     9    6    8 1
    10    7   17 2
    11    7   21 1
    12    8    9 am
    13    9   10 1
    14    9   11 2
    15   10   12 2
    16   10   13 1
    17   12   15 1
    18   12   16 1
    19   13   14 3
    20   17   18 1
    21   18   19 2
    22   19   20 1
    23   20   21 2
    24    2   23 1
    25    4   24 1
    26    5   25 1
    27    8   26 1
    28   15   27 1
    29   15   28 1
    30   15   29 1
    31   16   30 1
    32   17   31 1
    33   18   32 1
    34   19   33 1
    35   20   34 1
    36   21   35 1
@<TRIPOS>PROPERTY_DATA
  Total_Score	| 6.2642
  Crash		| -2.9507
  Polar		| 3.7465
  FragIndex	| 1
  FragRMSD	| 1.434

