@<TRIPOS>MOLECULE
BindingDB_29025
 35 36 0 0 0
SMALL
NO_CHARGES


@<TRIPOS>ATOM
1    C         5.9622  -35.3651   -3.1457  C     
2    C         6.8502  -34.3660   -2.6860  C     
3    C         6.7422  -33.8345   -1.3797  C     
4    C         5.7346  -34.3632   -0.5346  C     
5    C         4.8486  -35.3551   -0.9984  C     
6    C         4.9284  -35.8739   -2.3167  C     
7    C         7.6108  -32.7848   -0.9310  C     
8    N         4.0096  -36.8301   -2.6717  N     
9    C         3.7430  -37.4550   -3.8216  C     
10   C         2.7540  -38.3815   -3.8539  C     
11   O         4.3212  -37.2195   -4.8816  O     
12   C         1.5790  -38.1953   -4.5028  C     
13   C         2.9679  -39.4536   -3.1895  C     
14   N         3.1174  -40.4265   -2.5931  N     
15   C         0.4430  -39.1062   -4.4281  C     
16   O         1.4173  -37.1417   -5.2992  O     
17   C         8.1298  -32.7637    0.3915  C     
18   C         8.9784  -31.7255    0.8253  C     
19   C         9.3239  -30.6894   -0.0597  C     
20   C         8.8161  -30.6798   -1.3647  C     
21   C         7.9652  -31.7192   -1.7980  C     
22   H         6.0871  -35.7145   -4.0950  H     
23   H         7.5755  -34.0374   -3.3248  H     
24   H         5.6115  -34.0047    0.4201  H     
25   H         4.1244  -35.6981   -0.3586  H     
26   H         3.4161  -37.0814   -1.9507  H     
27   H         0.7066  -40.0618   -4.8854  H     
28   H        -0.4314  -38.7108   -4.9514  H     
29   H         0.1564  -39.2726   -3.3873  H     
30   H         0.6941  -36.6062   -4.8776  H     
31   H         7.9056  -33.5098    1.0561  H     
32   H         9.3426  -31.7231    1.7793  H     
33   H         9.9431  -29.9325    0.2547  H     
34   H         9.0500  -29.9181   -2.0031  H     
35   H         7.5898  -31.6739   -2.7491  H     
@<TRIPOS>BOND
     1    1    2 1
     2    1    6 2
     3    2    3 2
     4    3    4 1
     5    3    7 1
     6    4    5 2
     7    5    6 1
     8    6    8 1
     9    7   17 2
    10    7   21 1
    11    8    9 am
    12    9   10 1
    13    9   11 2
    14   10   12 2
    15   10   13 1
    16   12   15 1
    17   12   16 1
    18   13   14 3
    19   17   18 1
    20   18   19 2
    21   19   20 1
    22   20   21 2
    23    1   22 1
    24    2   23 1
    25    4   24 1
    26    5   25 1
    27    8   26 1
    28   15   27 1
    29   15   28 1
    30   15   29 1
    31   16   30 1
    32   17   31 1
    33   18   32 1
    34   19   33 1
    35   20   34 1
    36   21   35 1
@<TRIPOS>PROPERTY_DATA
  Total_Score	| 5.8264
  Crash		| -2.0125
  Polar		| 2.7781
  FragIndex	| 1
  FragRMSD	| 1.401

