@<TRIPOS>MOLECULE
BindingDB_14712
 28 28 0 0 0
SMALL
NO_CHARGES


@<TRIPOS>ATOM
1    C         5.9375  -35.2864   -3.1758  C     
2    C         6.9015  -34.3610   -2.7272  C     
3    C         6.8568  -33.8430   -1.4115  C     
4    C         5.8104  -34.2807   -0.5617  C     
5    C         4.8671  -35.2305   -0.9999  C     
6    C         4.9258  -35.7449   -2.3131  C     
7    C         7.9099  -32.8845   -0.9637  C     
8    F         7.7686  -32.4318    0.3253  F     
9    F         9.1458  -33.4880   -1.0405  F     
10   F         7.9223  -31.7767   -1.7812  F     
11   N         3.9720  -36.5691   -2.8244  N     
12   C         3.6723  -37.8221   -2.4799  C     
13   O         4.4410  -38.3874   -1.6968  O     
14   C         2.5939  -38.5157   -3.0252  C     
15   C         2.1905  -38.1731   -4.1960  C     
16   N         1.8253  -37.8362   -5.2346  N     
17   C         1.8827  -39.4576   -2.3434  C     
18   C         0.7611  -40.2312   -2.8770  C     
19   O         2.1679  -39.7387   -1.0628  O     
20   H         5.9920  -35.6335   -4.1377  H     
21   H         7.6409  -34.0631   -3.3742  H     
22   H         5.7185  -33.9060    0.3911  H     
23   H         4.1195  -35.5133   -0.3686  H     
24   H         3.4586  -36.1980   -3.5602  H     
25   H        -0.0340  -39.5598   -3.2001  H     
26   H         0.3451  -40.9089   -2.1229  H     
27   H         1.0973  -40.8298   -3.7221  H     
28   H         1.8076  -38.9707   -0.5610  H     
@<TRIPOS>BOND
     1    1    2 1
     2    1    6 2
     3    2    3 2
     4    3    4 1
     5    3    7 1
     6    4    5 2
     7    5    6 1
     8    6   11 1
     9    7    8 1
    10    7    9 1
    11    7   10 1
    12   11   12 am
    13   12   13 2
    14   12   14 1
    15   14   15 1
    16   14   17 2
    17   15   16 3
    18   17   18 1
    19   17   19 1
    20    1   20 1
    21    2   21 1
    22    4   22 1
    23    5   23 1
    24   11   24 1
    25   18   25 1
    26   18   26 1
    27   18   27 1
    28   19   28 1
@<TRIPOS>PROPERTY_DATA
  Total_Score	| 3.5903
  Crash		| -1.0852
  Polar		| 1.0183
  FragIndex	| 1
  FragRMSD	| 0.705

