@<TRIPOS>MOLECULE
BindingDB_29034
 35 36 0 0 0
SMALL
NO_CHARGES


@<TRIPOS>ATOM
1    C         6.2456  -35.6353   -3.1691  C     
2    C         7.0666  -34.5677   -2.7617  C     
3    C         6.9248  -33.9491   -1.4919  C     
4    C         5.9874  -34.5358   -0.5943  C     
5    C         5.1611  -35.6056   -1.0119  C     
6    C         5.2323  -36.1269   -2.3190  C     
7    C         7.6718  -32.7373   -1.2473  C     
8    N         4.2779  -37.0461   -2.6528  N     
9    C         3.9042  -37.5273   -3.8379  C     
10   C         2.7735  -38.2793   -3.9095  C     
11   O         4.4454  -37.2089   -4.8928  O     
12   C         1.6750  -37.8672   -4.5842  C     
13   C         2.7606  -39.3680   -3.2377  C     
14   N         2.7184  -40.3554   -2.6545  N     
15   C         0.3509  -38.4643   -4.4405  C     
16   O         1.7541  -36.8571   -5.4540  O     
17   C         8.3073  -32.3855   -0.0222  C     
18   C         9.0796  -31.2093    0.0832  C     
19   C         9.2597  -30.3757   -1.0321  C     
20   C         8.6290  -30.6891   -2.2419  C     
21   C         7.8309  -31.8377   -2.3362  C     
22   Cl        8.2483  -33.3348    1.3778  Cl    
23   Cl        5.7351  -33.9950    0.9903  Cl    
24   H         6.3846  -36.0202   -4.1023  H     
25   H         7.7606  -34.2209   -3.4308  H     
26   H         4.4664  -35.9830   -0.3590  H     
27   H         3.7257  -37.3389   -1.9032  H     
28   H         0.3655  -39.5021   -4.7802  H     
29   H        -0.3937  -37.9180   -5.0227  H     
30   H         0.0559  -38.4278   -3.3914  H     
31   H         1.8850  -36.0287   -4.9426  H     
32   H         9.5322  -30.9605    0.9655  H     
33   H         9.8551  -29.5513   -0.9669  H     
34   H         8.7538  -30.0969   -3.0626  H     
35   H         7.3801  -32.0309   -3.2312  H     
@<TRIPOS>BOND
     1    1    2 1
     2    1    6 2
     3    2    3 2
     4    3    4 1
     5    3    7 1
     6    4    5 2
     7    4   23 1
     8    5    6 1
     9    6    8 1
    10    7   17 2
    11    7   21 1
    12    8    9 am
    13    9   10 1
    14    9   11 2
    15   10   12 2
    16   10   13 1
    17   12   15 1
    18   12   16 1
    19   13   14 3
    20   17   18 1
    21   17   22 1
    22   18   19 2
    23   19   20 1
    24   20   21 2
    25    1   24 1
    26    2   25 1
    27    5   26 1
    28    8   27 1
    29   15   28 1
    30   15   29 1
    31   15   30 1
    32   16   31 1
    33   18   32 1
    34   19   33 1
    35   20   34 1
    36   21   35 1
@<TRIPOS>PROPERTY_DATA
  Total_Score	| 4.8669
  Crash		| -4.3156
  Polar		| 3.9065
  FragIndex	| 1
  FragRMSD	| 1.483

