@<TRIPOS>MOLECULE
BindingDB_29027
 35 36 0 0 0
SMALL
NO_CHARGES


@<TRIPOS>ATOM
1    C         5.0563  -34.9183   -0.9209  C     
2    C         5.9680  -33.9183   -0.5329  C     
3    C         7.0423  -33.5316   -1.3692  C     
4    C         7.1810  -34.2239   -2.5967  C     
5    C         6.2608  -35.1863   -3.0066  C     
6    C         5.1571  -35.5500   -2.1903  C     
7    C         7.9833  -32.5275   -0.9511  C     
8    N         4.1984  -36.4705   -2.5344  N     
9    C         3.9488  -37.1567   -3.6587  C     
10   C         2.8994  -38.0330   -3.7010  C     
11   O         4.5819  -37.0094   -4.6912  O     
12   C         1.8732  -37.9153   -4.5725  C     
13   C         2.9278  -39.0144   -2.8837  C     
14   N         2.9139  -39.9031   -2.1623  N     
15   C         0.7642  -38.8619   -4.6741  C     
16   O         1.8312  -36.9090   -5.4475  O     
17   C         8.4427  -31.4865   -1.8103  C     
18   C         9.4065  -30.5628   -1.3609  C     
19   C         9.8972  -30.6223   -0.0456  C     
20   C         9.4206  -31.6049    0.8284  C     
21   C         8.4901  -32.5552    0.3747  C     
22   Cl        3.8690  -35.3417    0.2197  Cl    
23   Cl        7.8498  -31.1893   -3.3829  Cl    
24   H         5.8464  -33.4635    0.3814  H     
25   H         7.9835  -34.0357   -3.2066  H     
26   H         6.4329  -35.6518   -3.8939  H     
27   H         3.5649  -36.6583   -1.8274  H     
28   H         1.1426  -39.8418   -4.9549  H     
29   H         0.0444  -38.5460   -5.4242  H     
30   H         0.2380  -38.9367   -3.7245  H     
31   H         1.9783  -36.0700   -4.9580  H     
32   H         9.7601  -29.8348   -1.9885  H     
33   H        10.5999  -29.9508    0.2638  H     
34   H         9.7671  -31.6395    1.7901  H     
35   H         8.1950  -33.2824    1.0383  H     
@<TRIPOS>BOND
     1    1    2 1
     2    1    6 2
     3    1   22 1
     4    2    3 2
     5    3    4 1
     6    3    7 1
     7    4    5 2
     8    5    6 1
     9    6    8 1
    10    7   17 2
    11    7   21 1
    12    8    9 am
    13    9   10 1
    14    9   11 2
    15   10   12 2
    16   10   13 1
    17   12   15 1
    18   12   16 1
    19   13   14 3
    20   17   18 1
    21   17   23 1
    22   18   19 2
    23   19   20 1
    24   20   21 2
    25    2   24 1
    26    4   25 1
    27    5   26 1
    28    8   27 1
    29   15   28 1
    30   15   29 1
    31   15   30 1
    32   16   31 1
    33   18   32 1
    34   19   33 1
    35   20   34 1
    36   21   35 1
@<TRIPOS>PROPERTY_DATA
  Total_Score	| 5.8609
  Crash		| -3.6991
  Polar		| 3.5693
  FragIndex	| 1
  FragRMSD	| 1.471

