@<TRIPOS>MOLECULE
BindingDB_29037
 35 36 0 0 0
SMALL
NO_CHARGES


@<TRIPOS>ATOM
1    C         6.2601  -35.4571   -3.0987  C     
2    C         7.1722  -34.4704   -2.6623  C     
3    C         6.9093  -33.7003   -1.5014  C     
4    C         5.7257  -33.9649   -0.7813  C     
5    C         4.8150  -34.9422   -1.2201  C     
6    C         5.0611  -35.7004   -2.3847  C     
7    C         7.8135  -32.6973   -1.0430  C     
8    N         4.1248  -36.6450   -2.7130  N     
9    C         3.8949  -37.3091   -3.8357  C     
10   C         2.8502  -38.1668   -3.8780  C     
11   O         4.5113  -37.0736   -4.8709  O     
12   C         1.7380  -37.9342   -4.6062  C     
13   C         2.9446  -39.2248   -3.1586  C     
14   N         3.0173  -40.1921   -2.5336  N     
15   C         0.5492  -38.7937   -4.5967  C     
16   O         1.6746  -36.8978   -5.4546  O     
17   C         8.3922  -31.7256   -1.9116  C     
18   C         9.2618  -30.7388   -1.3936  C     
19   C         9.5644  -30.7039   -0.0222  C     
20   C         9.0037  -31.6553    0.8415  C     
21   C         8.1352  -32.6433    0.3336  C     
22   Cl        8.0340  -31.6407   -3.5703  Cl    
23   H         6.4778  -36.0140   -3.9347  H     
24   H         8.0397  -34.3327   -3.1875  H     
25   H         5.5013  -33.4289    0.0603  H     
26   H         3.9664  -35.0974   -0.6770  H     
27   H         3.4887  -36.8435   -1.9951  H     
28   H         0.7986  -39.7766   -5.0086  H     
29   H        -0.2596  -38.3609   -5.1873  H     
30   H         0.1819  -38.9155   -3.5723  H     
31   H         1.8081  -36.0744   -4.9267  H     
32   H         9.6681  -30.0361   -2.0104  H     
33   H        10.2003  -29.9888    0.3458  H     
34   H         9.2220  -31.6269    1.8440  H     
35   H         7.7452  -33.3211    0.9969  H     
@<TRIPOS>BOND
     1    1    2 1
     2    1    6 2
     3    2    3 2
     4    3    4 1
     5    3    7 1
     6    4    5 2
     7    5    6 1
     8    6    8 1
     9    7   17 2
    10    7   21 1
    11    8    9 am
    12    9   10 1
    13    9   11 2
    14   10   12 2
    15   10   13 1
    16   12   15 1
    17   12   16 1
    18   13   14 3
    19   17   18 1
    20   17   22 1
    21   18   19 2
    22   19   20 1
    23   20   21 2
    24    1   23 1
    25    2   24 1
    26    4   25 1
    27    5   26 1
    28    8   27 1
    29   15   28 1
    30   15   29 1
    31   15   30 1
    32   16   31 1
    33   18   32 1
    34   19   33 1
    35   20   34 1
    36   21   35 1
@<TRIPOS>PROPERTY_DATA
  Total_Score	| 5.9569
  Crash		| -2.9291
  Polar		| 3.6874
  FragIndex	| 1
  FragRMSD	| 1.436

