@<TRIPOS>MOLECULE
BindingDB_29035
 35 36 0 0 0
SMALL
NO_CHARGES


@<TRIPOS>ATOM
1    C         5.0892  -35.2833   -1.0061  C     
2    C         6.0301  -34.3417   -0.5396  C     
3    C         7.0301  -33.8190   -1.4071  C     
4    C         7.0504  -34.2962   -2.7406  C     
5    C         6.1267  -35.2594   -3.1878  C     
6    C         5.1157  -35.7584   -2.3338  C     
7    C         7.9935  -32.8462   -0.9868  C     
8    N         4.1611  -36.6787   -2.6816  N     
9    C         3.9176  -37.3173   -3.8243  C     
10   C         2.8752  -38.1837   -3.8740  C     
11   O         4.5425  -37.0998   -4.8564  O     
12   C         1.7513  -37.9250   -4.5928  C     
13   C         2.9704  -39.2550   -3.1807  C     
14   N         3.0288  -40.2210   -2.5664  N     
15   C         0.5429  -38.7443   -4.5448  C     
16   O         1.7216  -36.8972   -5.4398  O     
17   C         8.5536  -31.9372   -1.9195  C     
18   C         9.4877  -30.9599   -1.5118  C     
19   C         9.8612  -30.8636   -0.1615  C     
20   C         9.3226  -31.7564    0.7753  C     
21   C         8.4115  -32.7483    0.3657  C     
22   Cl       10.2223  -29.9332   -2.6334  Cl    
23   Cl        5.8579  -33.8414    1.0711  Cl    
24   H         4.3681  -35.6332   -0.3659  H     
25   H         7.7690  -33.9726   -3.3942  H     
26   H         6.2125  -35.6062   -4.1446  H     
27   H         3.5415  -36.8965   -1.9679  H     
28   H         0.7545  -39.7577   -4.9046  H     
29   H        -0.2483  -38.3129   -5.1616  H     
30   H         0.1727  -38.7989   -3.5155  H     
31   H         1.8924  -36.0711   -4.9360  H     
32   H         8.2824  -31.9845   -2.9044  H     
33   H        10.5339  -30.1549    0.1437  H     
34   H         9.6083  -31.6927    1.7531  H     
35   H         8.0548  -33.4016    1.0690  H     
@<TRIPOS>BOND
     1    1    2 1
     2    1    6 2
     3    2    3 2
     4    2   23 1
     5    3    4 1
     6    3    7 1
     7    4    5 2
     8    5    6 1
     9    6    8 1
    10    7   17 2
    11    7   21 1
    12    8    9 am
    13    9   10 1
    14    9   11 2
    15   10   12 2
    16   10   13 1
    17   12   15 1
    18   12   16 1
    19   13   14 3
    20   17   18 1
    21   18   19 2
    22   18   22 1
    23   19   20 1
    24   20   21 2
    25    1   24 1
    26    4   25 1
    27    5   26 1
    28    8   27 1
    29   15   28 1
    30   15   29 1
    31   15   30 1
    32   16   31 1
    33   17   32 1
    34   19   33 1
    35   20   34 1
    36   21   35 1
@<TRIPOS>PROPERTY_DATA
  Total_Score	| 4.9162
  Crash		| -4.1613
  Polar		| 3.7580
  FragIndex	| 1
  FragRMSD	| 1.443

