@<TRIPOS>MOLECULE
BindingDB_50054587
 30 31 0 0 0
SMALL
NO_CHARGES


@<TRIPOS>ATOM
1    C         2.7651  -38.2472   -3.9619  C     
2    C         3.8156  -37.3677   -3.9403  C     
3    C         2.7251  -39.3574   -3.1896  C     
4    C         1.6703  -40.3661   -3.1435  C     
5    C         1.7685  -37.9024   -4.6763  C     
6    N         4.1340  -36.7790   -2.7844  N     
7    N         0.8560  -37.5798   -5.3081  N     
8    C         0.7330  -40.2270   -1.9214  C     
9    C         0.1637  -40.0955   -3.3314  C     
10   N         8.3977  -31.8460   -1.3569  N     
11   C         7.6651  -32.6940   -1.5969  C     
12   O         4.3514  -37.0562   -5.0019  O     
13   C         5.0662  -35.8068   -2.5123  C     
14   O         3.7979  -39.6979   -2.4805  O     
15   C         6.8456  -33.6672   -1.8740  C     
16   C         4.7522  -34.8732   -1.5001  C     
17   C         6.3146  -35.6752   -3.1600  C     
18   C         5.6282  -33.8170   -1.1815  C     
19   C         7.1842  -34.6098   -2.8625  C     
20   H         1.9850  -41.4030   -3.2772  H     
21   H         3.5776  -37.0299   -2.0279  H     
22   H         0.3801  -41.1300   -1.4256  H     
23   H         0.7176  -39.2852   -1.3659  H     
24   H        -0.1400  -39.0874   -3.6046  H     
25   H        -0.4264  -40.9355   -3.6919  H     
26   H         4.3162  -40.2555   -3.1017  H     
27   H         3.8691  -34.9500   -0.9867  H     
28   H         6.6234  -36.3612   -3.8468  H     
29   H         5.3614  -33.1573   -0.4415  H     
30   H         8.0688  -34.5353   -3.3775  H     
@<TRIPOS>BOND
     1    1    2 1
     2    1    3 2
     3    1    5 1
     4    2    6 am
     5    2   12 2
     6    3    4 1
     7    3   14 1
     8    4    8 1
     9    4    9 1
    10    5    7 3
    11    6   13 1
    12    8    9 1
    13   10   11 3
    14   11   15 1
    15   13   16 1
    16   13   17 2
    17   15   18 1
    18   15   19 2
    19   16   18 2
    20   17   19 1
    21    4   20 1
    22    6   21 1
    23    8   22 1
    24    8   23 1
    25    9   24 1
    26    9   25 1
    27   14   26 1
    28   16   27 1
    29   17   28 1
    30   18   29 1
    31   19   30 1
@<TRIPOS>PROPERTY_DATA
  Total_Score	| 4.7723
  Crash		| -1.8387
  Polar		| 2.2866
  FragIndex	| 1
  FragRMSD	| 0.494

