@<TRIPOS>MOLECULE
BindingDB_29036
 35 36 0 0 0
SMALL
NO_CHARGES


@<TRIPOS>ATOM
1    C         6.2332  -35.4859   -3.1977  C     
2    C         7.1669  -34.5214   -2.7597  C     
3    C         6.8990  -33.7098   -1.6197  C     
4    C         5.6756  -33.9069   -0.9401  C     
5    C         4.7697  -34.9031   -1.3500  C     
6    C         5.0134  -35.6944   -2.4923  C     
7    C         7.8288  -32.7553   -1.1159  C     
8    N         4.0999  -36.6567   -2.8017  N     
9    C         3.7675  -37.1869   -3.9670  C     
10   C         2.7791  -38.1194   -3.9762  C     
11   O         4.2890  -36.8243   -5.0180  O     
12   C         2.8625  -39.2410   -3.2113  C     
13   C         1.7234  -37.8589   -4.6540  C     
14   N         0.7918  -37.6078   -5.2761  N     
15   C         1.7661  -40.1717   -2.9722  C     
16   O         4.0023  -39.5147   -2.5858  O     
17   C         8.5834  -31.8793   -1.9544  C     
18   C         9.4810  -30.9310   -1.3821  C     
19   C         9.5983  -30.8312    0.0156  C     
20   C         8.8539  -31.6778    0.8524  C     
21   C         7.9860  -32.6350    0.2897  C     
22   Cl       10.4386  -29.8723   -2.3213  Cl    
23   Cl        8.3890  -31.8638   -3.6467  Cl    
24   H         6.4536  -36.0625   -4.0132  H     
25   H         8.0576  -34.4178   -3.2643  H     
26   H         5.4485  -33.3326   -0.1204  H     
27   H         3.9034  -35.0224   -0.8174  H     
28   H         3.5470  -36.9256   -2.0557  H     
29   H         0.9160  -39.6314   -2.5352  H     
30   H         2.0641  -40.9403   -2.2546  H     
31   H         1.4404  -40.6455   -3.9007  H     
32   H         4.4266  -40.1839   -3.1680  H     
33   H        10.2489  -30.1637    0.4326  H     
34   H         8.9528  -31.6140    1.8690  H     
35   H         7.4711  -33.2514    0.9262  H     
@<TRIPOS>BOND
     1    1    2 1
     2    1    6 2
     3    2    3 2
     4    3    4 1
     5    3    7 1
     6    4    5 2
     7    5    6 1
     8    6    8 1
     9    7   17 2
    10    7   21 1
    11    8    9 am
    12    9   10 1
    13    9   11 2
    14   10   12 2
    15   10   13 1
    16   12   15 1
    17   12   16 1
    18   13   14 3
    19   17   18 1
    20   17   23 1
    21   18   19 2
    22   18   22 1
    23   19   20 1
    24   20   21 2
    25    1   24 1
    26    2   25 1
    27    4   26 1
    28    5   27 1
    29    8   28 1
    30   15   29 1
    31   15   30 1
    32   15   31 1
    33   16   32 1
    34   19   33 1
    35   20   34 1
    36   21   35 1
@<TRIPOS>PROPERTY_DATA
  Total_Score	| 5.0154
  Crash		| -2.2448
  Polar		| 2.3172
  FragIndex	| 1
  FragRMSD	| 0.457

