@<TRIPOS>MOLECULE
BindingDB_29032
 35 36 0 0 0
SMALL
NO_CHARGES


@<TRIPOS>ATOM
1    C         5.0089  -35.1801   -0.9592  C     
2    C         5.9132  -34.1849   -0.5434  C     
3    C         6.9522  -33.7000   -1.3905  C     
4    C         7.0250  -34.2782   -2.6909  C     
5    C         6.1088  -35.2508   -3.1204  C     
6    C         5.0662  -35.7142   -2.2773  C     
7    C         7.8960  -32.7136   -0.9415  C     
8    N         4.1414  -36.6588   -2.6438  N     
9    C         3.8978  -37.3008   -3.7872  C     
10   C         2.8427  -38.1671   -3.8456  C     
11   O         4.5217  -37.1007   -4.8220  O     
12   C         1.7234  -37.9370   -4.5723  C     
13   C         2.9329  -39.2087   -3.1132  C     
14   N         2.9679  -40.1606   -2.4713  N     
15   C         0.5117  -38.7455   -4.4874  C     
16   O         1.6453  -36.9057   -5.4253  O     
17   C         8.5651  -31.8494   -1.8651  C     
18   C         9.5217  -30.9089   -1.4349  C     
19   C         9.8174  -30.7676   -0.0640  C     
20   C         9.1553  -31.5899    0.8705  C     
21   C         8.2326  -32.5560    0.4410  C     
22   Cl        3.8750  -35.6847    0.2033  Cl    
23   Cl       10.3609  -29.9692   -2.5831  Cl    
24   H         5.8033  -33.7965    0.4055  H     
25   H         7.7727  -34.0210   -3.3400  H     
26   H         6.2391  -35.6334   -4.0620  H     
27   H         3.5199  -36.8928   -1.9226  H     
28   H         0.7101  -39.7707   -4.8170  H     
29   H        -0.2835  -38.3352   -5.1010  H     
30   H         0.1451  -38.7751   -3.4526  H     
31   H         1.7961  -36.0744   -4.9283  H     
32   H         8.3620  -31.8891   -2.8717  H     
33   H        10.5052  -30.0943    0.2543  H     
34   H         9.3704  -31.4966    1.8765  H     
35   H         7.8249  -33.1556    1.1703  H     
@<TRIPOS>BOND
     1    1    2 1
     2    1    6 2
     3    1   22 1
     4    2    3 2
     5    3    4 1
     6    3    7 1
     7    4    5 2
     8    5    6 1
     9    6    8 1
    10    7   17 2
    11    7   21 1
    12    8    9 am
    13    9   10 1
    14    9   11 2
    15   10   12 2
    16   10   13 1
    17   12   15 1
    18   12   16 1
    19   13   14 3
    20   17   18 1
    21   18   19 2
    22   18   23 1
    23   19   20 1
    24   20   21 2
    25    2   24 1
    26    4   25 1
    27    5   26 1
    28    8   27 1
    29   15   28 1
    30   15   29 1
    31   15   30 1
    32   16   31 1
    33   17   32 1
    34   19   33 1
    35   20   34 1
    36   21   35 1
@<TRIPOS>PROPERTY_DATA
  Total_Score	| 6.2106
  Crash		| -2.7869
  Polar		| 3.6659
  FragIndex	| 1
  FragRMSD	| 1.436

