@<TRIPOS>MOLECULE
BindingDB_50008294
 56 58 0 0 0
SMALL
NO_CHARGES


@<TRIPOS>ATOM
1    N        12.8065   19.3059   32.2234  N     
2    C        12.5341   19.8046   30.9926  C     
3    N        12.8643   19.0872   29.8886  N     
4    C        13.4039   18.1358   32.4019  C     
5    C        13.7823   17.3649   31.2972  C     
6    C        13.4841   17.8733   30.0043  C     
7    C        13.8285   17.1233   28.8634  C     
8    C        14.4627   15.8748   29.0012  C     
9    C        14.7708   15.3485   30.2804  C     
10   C        14.4359   16.1185   31.4190  C     
11   O        13.5876   17.7715   33.5545  O     
12   N        11.9559   21.0095   30.8839  N     
13   C        15.3549   13.9791   30.4145  C     
14   N        16.2223   13.7804   31.5768  N     
15   C        15.7357   13.3016   32.7953  C     
16   C        17.6292   14.1290   31.3776  C     
17   C        18.1352   14.9477   32.3475  C     
18   C        14.3484   13.1465   33.0780  C     
19   C        13.8632   12.7744   34.3544  C     
20   C        14.7565   12.5005   35.4094  C     
21   C        16.1375   12.5561   35.1284  C     
22   C        16.6065   12.9521   33.8636  C     
23   C        14.3054   12.1312   36.6760  C     
24   N        13.5555   12.9599   37.4000  N     
25   O        14.6867   11.0634   37.1407  O     
26   C        13.0402   12.7813   38.7403  C     
27   C        12.1453   11.5970   38.8098  C     
28   C        14.1724   12.7687   39.8304  C     
29   C        13.7994   12.1854   41.2374  C     
30   O        11.0925   11.5928   39.6612  O     
31   O        12.4772   10.4329   38.1997  O     
32   C        14.9196   11.4155   41.8332  C     
33   O        16.2055   11.7795   41.6207  O     
34   O        14.6864   10.2029   42.3892  O     
35   C        18.5903   15.6475   33.2179  C     
36   H        12.6691   19.4423   29.0078  H     
37   H        13.6013   17.4746   27.9312  H     
38   H        14.6767   15.3361   28.1555  H     
39   H        14.6590   15.7654   32.3525  H     
40   H        11.7624   21.3809   30.0095  H     
41   H        11.7480   21.5183   31.6833  H     
42   H        14.5356   13.2622   30.3891  H     
43   H        15.9206   13.7311   29.5059  H     
44   H        18.2294   13.2165   31.3267  H     
45   H        17.8052   14.6549   30.4343  H     
46   H        13.6360   13.3590   32.3836  H     
47   H        12.8532   12.7138   34.5051  H     
48   H        16.8183   12.3304   35.8571  H     
49   H        17.6139   12.9999   33.7608  H     
50   H        13.3290   13.8113   36.9827  H     
51   H        12.4310   13.6681   38.9519  H     
52   H        15.0247   12.2114   39.4315  H     
53   H        14.5195   13.8004   39.9716  H     
54   H        13.5230   12.9975   41.9235  H     
55   H        12.9312   11.5205   41.1678  H     
56   H        18.9301   16.1725   33.8815  H     
@<TRIPOS>BOND
     1    1    2 2
     2    1    4 1
     3    2    3 1
     4    2   12 1
     5    3    6 1
     6    4    5 1
     7    4   11 2
     8    5    6 2
     9    5   10 1
    10    6    7 1
    11    7    8 2
    12    8    9 1
    13    9   10 2
    14    9   13 1
    15   13   14 1
    16   14   15 1
    17   14   16 1
    18   15   18 2
    19   15   22 1
    20   16   17 1
    21   17   35 3
    22   18   19 1
    23   19   20 2
    24   20   21 1
    25   20   23 1
    26   21   22 2
    27   23   24 am
    28   23   25 2
    29   24   26 1
    30   26   27 1
    31   26   28 1
    32   27   30 2
    33   27   31 1
    34   28   29 1
    35   29   32 1
    36   32   33 1
    37   32   34 2
    38    3   36 1
    39    7   37 1
    40    8   38 1
    41   10   39 1
    42   12   40 1
    43   12   41 1
    44   13   42 1
    45   13   43 1
    46   16   44 1
    47   16   45 1
    48   18   46 1
    49   19   47 1
    50   21   48 1
    51   22   49 1
    52   24   50 1
    53   26   51 1
    54   28   52 1
    55   28   53 1
    56   29   54 1
    57   29   55 1
    58   35   56 1
@<TRIPOS>PROPERTY_DATA
  Total_Score	| 6.7907
  Crash		| -1.3418
  Polar		| 3.6316
  FragIndex	| 1
  FragRMSD	| 0.757

