@<TRIPOS>MOLECULE
BindingDB_32419
 51 53 0 0 0
SMALL
NO_CHARGES


@<TRIPOS>ATOM
1    C        38.8053  -16.6197   13.2977  C     
2    C        37.4885  -16.5993   13.8021  C     
3    C        36.8183  -15.3797   14.0243  C     
4    C        37.4582  -14.1834   13.6486  C     
5    C        39.4464  -15.4213   12.8983  C     
6    C        38.7464  -14.2094   13.1027  C     
7    C        40.4973  -12.9076   12.1984  C     
8    N        39.2939  -13.0339   12.7217  N     
9    C        41.2899  -14.0255   11.9479  C     
10   C        40.7704  -15.3140   12.3093  C     
11   C        42.8688  -16.2732   11.4624  C     
12   C        41.6019  -16.4322   12.0604  C     
13   C        42.5740  -13.9211   11.3417  C     
14   N        43.3260  -15.0322   11.1200  N     
15   N        43.1472  -12.7495   11.0221  N     
16   N        43.6281  -17.3808   11.2618  N     
17   O        35.5987  -15.4017   14.6471  O     
18   C        34.6142  -14.4293   14.2209  C     
19   C        33.2076  -14.7856   14.7294  C     
20   O        32.3430  -14.9824   13.5727  O     
21   C        30.9452  -15.0041   13.8549  C     
22   O        36.8715  -17.7640   14.1459  O     
23   C        36.4293  -18.5699   13.0251  C     
24   C        44.7946  -17.4837   10.4300  C     
25   C        45.9017  -16.4592   10.7822  C     
26   O        47.1473  -16.7068   10.0912  O     
27   C        47.7803  -15.6019    9.4041  C     
28   H        39.2626  -17.5207   13.1839  H     
29   H        36.9850  -13.2908   13.7805  H     
30   H        40.8193  -11.9955   11.9734  H     
31   H        41.3046  -17.3984   12.2954  H     
32   H        44.0290  -12.7496   10.6299  H     
33   H        42.6964  -11.9138   11.2056  H     
34   H        43.3909  -18.2119   11.7368  H     
35   H        34.8879  -13.4359   14.6021  H     
36   H        34.5950  -14.3807   13.1300  H     
37   H        33.2478  -15.7230   15.3026  H     
38   H        32.8163  -13.9877   15.3803  H     
39   H        30.6817  -15.7678   14.5971  H     
40   H        30.4302  -15.2391   12.9240  H     
41   H        30.5888  -14.0247   14.1989  H     
42   H        35.7545  -18.0102   12.3696  H     
43   H        35.8875  -19.4357   13.4051  H     
44   H        37.2822  -18.9292   12.4462  H     
45   H        45.2156  -18.4908   10.5613  H     
46   H        44.4981  -17.3833    9.3784  H     
47   H        45.5320  -15.4263   10.6264  H     
48   H        46.1345  -16.5593   11.8520  H     
49   H        47.1834  -15.2717    8.5450  H     
50   H        48.7408  -15.9745    9.0262  H     
51   H        47.9825  -14.7567   10.0727  H     
@<TRIPOS>BOND
     1    1    2 1
     2    1    5 2
     3    2    3 2
     4    2   22 1
     5    3    4 1
     6    3   17 1
     7    4    6 2
     8    5    6 1
     9    5   10 1
    10    6    8 1
    11    7    8 2
    12    7    9 1
    13    9   10 2
    14    9   13 1
    15   10   12 1
    16   11   12 2
    17   11   14 1
    18   11   16 1
    19   13   14 2
    20   13   15 1
    21   16   24 1
    22   17   18 1
    23   18   19 1
    24   19   20 1
    25   20   21 1
    26   22   23 1
    27   24   25 1
    28   25   26 1
    29   26   27 1
    30    1   28 1
    31    4   29 1
    32    7   30 1
    33   12   31 1
    34   15   32 1
    35   15   33 1
    36   16   34 1
    37   18   35 1
    38   18   36 1
    39   19   37 1
    40   19   38 1
    41   21   39 1
    42   21   40 1
    43   21   41 1
    44   23   42 1
    45   23   43 1
    46   23   44 1
    47   24   45 1
    48   24   46 1
    49   25   47 1
    50   25   48 1
    51   27   49 1
    52   27   50 1
    53   27   51 1
@<TRIPOS>PROPERTY_DATA
  Total_Score	| 12.3915
  Crash		| -1.4311
  Polar		| 4.2324
  FragIndex	| 1
  FragRMSD	| 0.480

