@<TRIPOS>MOLECULE
BindingDB_32421
 55 58 0 0 0
SMALL
NO_CHARGES


@<TRIPOS>ATOM
1    C        38.6193  -16.5412   13.2930  C     
2    C        37.3363  -16.4784   13.8784  C     
3    C        36.6932  -15.2306   14.0315  C     
4    C        37.3500  -14.0594   13.6098  C     
5    C        39.2875  -15.3660   12.8486  C     
6    C        38.6236  -14.1260   13.0306  C     
7    C        40.4525  -12.8941   12.1895  C     
8    N        39.2343  -12.9733   12.6915  N     
9    C        41.2027  -14.0457   11.9523  C     
10   C        40.6136  -15.3171   12.2544  C     
11   C        42.6550  -16.4085   11.3367  C     
12   C        41.3640  -16.4755   11.9261  C     
13   C        42.5086  -13.9932   11.3953  C     
14   N        43.1404  -15.1568   11.1178  N     
15   N        43.1719  -12.8520   11.1258  N     
16   O        35.5214  -15.1553   14.7673  O     
17   C        34.4249  -14.4117   14.2072  C     
18   C        33.0771  -15.0086   14.6591  C     
19   O        32.1369  -15.0606   13.5660  O     
20   C        30.7417  -14.9945   13.9143  C     
21   O        36.7202  -17.5875   14.3935  O     
22   C        36.2048  -18.5083   13.4137  C     
23   C        45.2629  -19.6508   11.5610  C     
24   C        43.8858  -20.0251   10.9735  C     
25   C        42.8978  -18.8602   11.2449  C     
26   C        44.6814  -17.4159   10.3227  C     
27   C        45.7772  -18.2917   10.9984  C     
28   N        43.3962  -17.5158   10.9925  N     
29   O        46.1937  -20.6990   11.2983  O     
30   H        39.0647  -17.4622   13.2456  H     
31   H        36.8890  -13.1583   13.7498  H     
32   H        40.8034  -11.9976   11.9632  H     
33   H        40.9400  -17.3851   12.0855  H     
34   H        44.0700  -12.8900   10.7711  H     
35   H        42.7665  -11.9913   11.3161  H     
36   H        34.4905  -13.3904   14.5779  H     
37   H        34.4612  -14.3790   13.1111  H     
38   H        33.2390  -16.0364   14.9915  H     
39   H        32.6718  -14.4456   15.5065  H     
40   H        30.4458  -15.9042   14.4442  H     
41   H        30.1645  -14.9279   12.9969  H     
42   H        30.5214  -14.1208   14.5290  H     
43   H        35.6644  -18.0038   12.6078  H     
44   H        35.5032  -19.1742   13.9148  H     
45   H        37.0239  -19.0974   12.9888  H     
46   H        45.1523  -19.5667   12.6483  H     
47   H        43.9729  -20.2023    9.8973  H     
48   H        43.5133  -20.9413   11.4398  H     
49   H        41.9936  -19.0320   10.6513  H     
50   H        42.6319  -18.9336   12.3036  H     
51   H        45.0752  -16.3981   10.2486  H     
52   H        44.5495  -17.7640    9.2946  H     
53   H        46.2232  -17.7142   11.8193  H     
54   H        46.5626  -18.4768   10.2577  H     
55   H        46.8298  -20.6804   12.0652  H     
@<TRIPOS>BOND
     1    1    2 1
     2    1    5 2
     3    2    3 2
     4    2   21 1
     5    3    4 1
     6    3   16 1
     7    4    6 2
     8    5    6 1
     9    5   10 1
    10    6    8 1
    11    7    8 2
    12    7    9 1
    13    9   10 2
    14    9   13 1
    15   10   12 1
    16   11   12 2
    17   11   14 1
    18   11   28 1
    19   13   14 2
    20   13   15 1
    21   16   17 1
    22   17   18 1
    23   18   19 1
    24   19   20 1
    25   21   22 1
    26   23   24 1
    27   23   27 1
    28   23   29 1
    29   24   25 1
    30   25   28 1
    31   26   27 1
    32   26   28 1
    33    1   30 1
    34    4   31 1
    35    7   32 1
    36   12   33 1
    37   15   34 1
    38   15   35 1
    39   17   36 1
    40   17   37 1
    41   18   38 1
    42   18   39 1
    43   20   40 1
    44   20   41 1
    45   20   42 1
    46   22   43 1
    47   22   44 1
    48   22   45 1
    49   23   46 1
    50   24   47 1
    51   24   48 1
    52   25   49 1
    53   25   50 1
    54   26   51 1
    55   26   52 1
    56   27   53 1
    57   27   54 1
    58   29   55 1
@<TRIPOS>PROPERTY_DATA
  Total_Score	| 9.6765
  Crash		| -2.2575
  Polar		| 3.0039
  FragIndex	| 1
  FragRMSD	| 0.514

