@<TRIPOS>MOLECULE
BindingDB_32433
 48 51 0 0 0
SMALL
NO_CHARGES


@<TRIPOS>ATOM
1    C        38.8684  -16.5966   13.1749  C     
2    C        37.6191  -16.6102   13.7014  C     
3    C        36.9498  -15.4330   13.9636  C     
4    C        37.5174  -14.2417   13.6589  C     
5    C        39.5145  -15.3890   12.8226  C     
6    C        38.7782  -14.1914   13.0783  C     
7    C        40.5099  -12.8327   12.2145  C     
8    N        39.2925  -12.9808   12.7671  N     
9    C        41.3096  -13.9587   11.9433  C     
10   C        40.8145  -15.2663   12.2366  C     
11   C        42.8720  -16.2124   11.3962  C     
12   C        41.6498  -16.3672   11.9554  C     
13   C        42.5906  -13.8357   11.3563  C     
14   N        43.2799  -14.9673   11.1144  N     
15   N        43.1760  -12.6724   11.0325  N     
16   O        35.7546  -15.5192   14.5935  O     
17   O        37.0647  -17.7868   14.0542  O     
18   C        43.7661  -17.2596   11.1373  C     
19   C        43.3495  -18.5937   10.8874  C     
20   C        44.2878  -19.6166   10.6551  C     
21   C        45.1655  -17.0204   11.1134  C     
22   C        45.6563  -19.3021   10.6783  C     
23   N        46.0468  -18.0258   10.8976  N     
24   C        36.6530  -18.5897   12.9339  C     
25   C        34.7417  -14.5476   14.1950  C     
26   C        33.3296  -14.9772   14.6514  C     
27   O        32.4511  -15.0507   13.4970  O     
28   C        31.0458  -15.0847   13.8031  C     
29   H        39.3083  -17.4696   13.0084  H     
30   H        37.0149  -13.3979   13.8467  H     
31   H        40.8302  -11.8920   12.0193  H     
32   H        41.3587  -17.2743   12.2169  H     
33   H        44.0535  -12.6758   10.6302  H     
34   H        42.7210  -11.8311   11.1834  H     
35   H        42.3565  -18.8397   10.8626  H     
36   H        43.9810  -20.5763   10.4762  H     
37   H        45.5537  -16.0911   11.2869  H     
38   H        46.3597  -20.0301   10.5369  H     
39   H        35.8808  -18.0870   12.3442  H     
40   H        36.2322  -19.5124   13.3253  H     
41   H        37.4981  -18.8454   12.2911  H     
42   H        34.9970  -13.5702   14.6402  H     
43   H        34.7432  -14.4276   13.1015  H     
44   H        33.3697  -15.9683   15.1304  H     
45   H        32.9390  -14.2526   15.3882  H     
46   H        30.7845  -15.9316   14.4474  H     
47   H        30.5055  -15.1888   12.8597  H     
48   H        30.7332  -14.1478   14.2785  H     
@<TRIPOS>BOND
     1    1    2 2
     2    1    5 1
     3    2    3 1
     4    2   17 1
     5    3    4 2
     6    3   16 1
     7    4    6 1
     8    5    6 1
     9    5   10 2
    10    6    8 2
    11    7    8 1
    12    7    9 2
    13    9   10 1
    14    9   13 1
    15   10   12 1
    16   11   12 2
    17   11   14 1
    18   11   18 1
    19   13   14 2
    20   13   15 1
    21   16   25 1
    22   17   24 1
    23   18   19 1
    24   18   21 2
    25   19   20 2
    26   20   22 1
    27   21   23 1
    28   22   23 2
    29   25   26 1
    30   26   27 1
    31   27   28 1
    32    1   29 1
    33    4   30 1
    34    7   31 1
    35   12   32 1
    36   15   33 1
    37   15   34 1
    38   19   35 1
    39   20   36 1
    40   21   37 1
    41   22   38 1
    42   24   39 1
    43   24   40 1
    44   24   41 1
    45   25   42 1
    46   25   43 1
    47   26   44 1
    48   26   45 1
    49   28   46 1
    50   28   47 1
    51   28   48 1
@<TRIPOS>PROPERTY_DATA
  Total_Score	| 11.0181
  Crash		| -1.2888
  Polar		| 4.2219
  FragIndex	| 1
  FragRMSD	| 0.290

