@<TRIPOS>MOLECULE
BindingDB_32431
 47 50 0 0 0
SMALL
NO_CHARGES


@<TRIPOS>ATOM
1    C        38.8000  -16.5690   13.1748  C     
2    C        37.5625  -16.5769   13.7204  C     
3    C        36.8933  -15.3869   13.9450  C     
4    C        37.4566  -14.2194   13.5939  C     
5    C        39.4450  -15.3777   12.7766  C     
6    C        38.7145  -14.1826   13.0031  C     
7    C        40.4708  -12.8272   12.1655  C     
8    N        39.2389  -12.9776   12.6947  N     
9    C        41.2656  -13.9569   11.9106  C     
10   C        40.7558  -15.2611   12.2087  C     
11   C        42.8281  -16.2177   11.3975  C     
12   C        41.5978  -16.3603   11.9477  C     
13   C        42.5622  -13.8422   11.3397  C     
14   N        43.2500  -14.9765   11.1095  N     
15   N        43.1663  -12.6778   11.0323  N     
16   O        35.7979  -15.3886   14.7345  O     
17   O        37.0628  -17.7177   14.2366  O     
18   C        43.7254  -17.2639   11.1535  C     
19   C        43.3056  -18.5930   10.8704  C     
20   C        44.2306  -19.6181   10.6383  C     
21   C        45.1332  -17.0421   11.1635  C     
22   C        45.6070  -19.3225   10.6970  C     
23   N        46.0076  -18.0504   10.9408  N     
24   C        36.6694  -18.7713   13.3318  C     
25   C        35.1453  -18.9601   13.3316  C     
26   C        34.7035  -14.5149   14.3661  C     
27   C        33.5789  -14.6446   15.4118  C     
28   H        39.2708  -17.4382   13.0847  H     
29   H        37.0207  -13.3548   13.8104  H     
30   H        40.7999  -11.8828   11.9642  H     
31   H        41.3033  -17.2648   12.2170  H     
32   H        44.0632  -12.6871   10.6592  H     
33   H        42.7225  -11.8280   11.1873  H     
34   H        42.3115  -18.8216   10.7971  H     
35   H        43.9211  -20.5737   10.4320  H     
36   H        45.5225  -16.1184   11.3704  H     
37   H        46.3050  -20.0544   10.5580  H     
38   H        37.0142  -18.6255   12.3007  H     
39   H        37.1252  -19.6903   13.6983  H     
40   H        34.7716  -19.0644   14.3527  H     
41   H        34.8767  -19.8583   12.7740  H     
42   H        34.6585  -18.1044   12.8633  H     
43   H        35.0008  -13.4568   14.3392  H     
44   H        34.3073  -14.8004   13.3876  H     
45   H        33.1466  -15.6504   15.3804  H     
46   H        32.7961  -13.9118   15.1877  H     
47   H        33.9747  -14.4507   16.4141  H     
@<TRIPOS>BOND
     1    1    2 2
     2    1    5 1
     3    2    3 1
     4    2   17 1
     5    3    4 2
     6    3   16 1
     7    4    6 1
     8    5    6 1
     9    5   10 2
    10    6    8 2
    11    7    8 1
    12    7    9 2
    13    9   10 1
    14    9   13 1
    15   10   12 1
    16   11   12 2
    17   11   14 1
    18   11   18 1
    19   13   14 2
    20   13   15 1
    21   16   26 1
    22   17   24 1
    23   18   19 1
    24   18   21 2
    25   19   20 2
    26   20   22 1
    27   21   23 1
    28   22   23 2
    29   24   25 1
    30   26   27 1
    31    1   28 1
    32    4   29 1
    33    7   30 1
    34   12   31 1
    35   15   32 1
    36   15   33 1
    37   19   34 1
    38   20   35 1
    39   21   36 1
    40   22   37 1
    41   24   38 1
    42   24   39 1
    43   25   40 1
    44   25   41 1
    45   25   42 1
    46   26   43 1
    47   26   44 1
    48   27   45 1
    49   27   46 1
    50   27   47 1
@<TRIPOS>PROPERTY_DATA
  Total_Score	| 10.6506
  Crash		| -1.0182
  Polar		| 4.1962
  FragIndex	| 1
  FragRMSD	| 0.268

