@<TRIPOS>MOLECULE
BindingDB_32427
 42 45 0 0 0
SMALL
NO_CHARGES


@<TRIPOS>ATOM
1    C        38.8624  -16.5600   13.0196  C     
2    C        37.6140  -16.5717   13.5406  C     
3    C        36.9759  -15.4006   13.8820  C     
4    C        37.5565  -14.2134   13.6060  C     
5    C        39.5324  -15.3550   12.7340  C     
6    C        38.8109  -14.1581   13.0127  C     
7    C        40.5768  -12.8013   12.2028  C     
8    N        39.3494  -12.9479   12.7385  N     
9    C        41.3633  -13.9330   11.9107  C     
10   C        40.8510  -15.2377   12.1895  C     
11   C        42.9285  -16.1938   11.3791  C     
12   C        41.6988  -16.3381   11.9271  C     
13   C        42.6596  -13.8151   11.3416  C     
14   N        43.3455  -14.9512   11.0924  N     
15   N        43.2500  -12.6502   11.0192  N     
16   O        35.8538  -15.4858   14.6250  O     
17   C        34.7752  -14.5730   14.3370  C     
18   O        37.0328  -17.7600   13.7776  O     
19   C        35.9541  -18.0812   12.8784  C     
20   C        43.8305  -17.2351   11.1093  C     
21   C        45.2150  -17.0359   11.0006  C     
22   C        44.8564  -19.1167   10.6572  C     
23   N        45.8271  -18.1928   10.7322  N     
24   N        43.6436  -18.5638   10.8754  N     
25   C        42.4203  -19.3146   10.7976  C     
26   H        39.2855  -17.4282   12.8083  H     
27   H        37.1069  -13.3696   13.8644  H     
28   H        40.9146  -11.8565   12.0303  H     
29   H        41.4127  -17.2348   12.2124  H     
30   H        44.1380  -12.6539   10.6310  H     
31   H        42.8003  -11.8068   11.1793  H     
32   H        34.9872  -13.5807   14.7501  H     
33   H        33.8710  -14.9593   14.8144  H     
34   H        34.5834  -14.4879   13.2618  H     
35   H        35.0812  -17.4524   13.0707  H     
36   H        35.6678  -19.1158   13.0538  H     
37   H        36.2476  -17.9763   11.8297  H     
38   H        45.7114  -16.1471   11.1170  H     
39   H        45.0330  -20.1047   10.4524  H     
40   H        41.9866  -19.4190   11.7958  H     
41   H        42.5810  -20.3241   10.4033  H     
42   H        41.7109  -18.8068   10.1375  H     
@<TRIPOS>BOND
     1    1    2 2
     2    1    5 1
     3    2    3 1
     4    2   18 1
     5    3    4 2
     6    3   16 1
     7    4    6 1
     8    5    6 1
     9    5   10 2
    10    6    8 2
    11    7    8 1
    12    7    9 2
    13    9   10 1
    14    9   13 1
    15   10   12 1
    16   11   12 2
    17   11   14 1
    18   11   20 1
    19   13   14 2
    20   13   15 1
    21   16   17 1
    22   18   19 1
    23   20   21 2
    24   20   24 1
    25   21   23 1
    26   22   23 2
    27   22   24 1
    28   24   25 1
    29    1   26 1
    30    4   27 1
    31    7   28 1
    32   12   29 1
    33   15   30 1
    34   15   31 1
    35   17   32 1
    36   17   33 1
    37   17   34 1
    38   19   35 1
    39   19   36 1
    40   19   37 1
    41   21   38 1
    42   22   39 1
    43   25   40 1
    44   25   41 1
    45   25   42 1
@<TRIPOS>PROPERTY_DATA
  Total_Score	| 10.4533
  Crash		| -0.8948
  Polar		| 4.2046
  FragIndex	| 1
  FragRMSD	| 0.328

