@<TRIPOS>MOLECULE
BindingDB_32422
 46 49 0 0 0
SMALL
NO_CHARGES


@<TRIPOS>ATOM
1    C        38.9566  -16.6600   13.1619  C     
2    C        37.6219  -16.7058   13.6357  C     
3    C        36.8843  -15.5153   13.8089  C     
4    C        37.5182  -14.2922   13.5100  C     
5    C        39.5818  -15.4387   12.8179  C     
6    C        38.8387  -14.2498   13.0199  C     
7    C        40.5876  -12.8849   12.2613  C     
8    N        39.3705  -13.0420   12.7453  N     
9    C        41.3924  -13.9852   11.9760  C     
10   C        40.9194  -15.2969   12.2666  C     
11   C        43.0529  -16.2017   11.4101  C     
12   C        41.7798  -16.3987   11.9932  C     
13   C        42.6656  -13.8238   11.3738  C     
14   N        43.3992  -14.9229   11.1219  N     
15   N        43.2229  -12.6540   11.0256  N     
16   O        35.5825  -15.6960   14.2595  O     
17   C        34.7220  -14.5793   14.6094  C     
18   C        33.2653  -15.0179   14.8764  C     
19   O        32.5852  -15.1500   13.6178  O     
20   C        31.1615  -15.2956   13.7388  C     
21   O        37.0830  -17.9165   13.9775  O     
22   C        36.5831  -18.6572   12.8544  C     
23   C        45.1886  -17.0013   10.5760  C     
24   C        43.9068  -18.5119   11.4159  C     
25   C        45.1057  -19.0964   11.0245  C     
26   N        45.8969  -18.1406   10.5200  N     
27   N        43.9709  -17.1917   11.1439  N     
28   H        39.4567  -17.5479   13.0609  H     
29   H        37.0435  -13.4041   13.6245  H     
30   H        40.9020  -11.9628   12.1046  H     
31   H        41.4858  -17.3468   12.2032  H     
32   H        44.1044  -12.6445   10.6192  H     
33   H        42.7568  -11.8174   11.1742  H     
34   H        35.0870  -14.1141   15.5332  H     
35   H        34.7472  -13.8275   13.8033  H     
36   H        33.2654  -15.9711   15.4068  H     
37   H        32.7972  -14.2626   15.5122  H     
38   H        30.9015  -16.1863   14.3193  H     
39   H        30.7497  -15.3964   12.7335  H     
40   H        30.7136  -14.4080   14.2035  H     
41   H        35.8113  -18.0950   12.3200  H     
42   H        36.1399  -19.5789   13.2287  H     
43   H        37.3889  -18.9218   12.1653  H     
44   H        45.5679  -16.1034   10.2578  H     
45   H        43.1388  -19.0182   11.8607  H     
46   H        45.3635  -20.0801   11.1259  H     
@<TRIPOS>BOND
     1    1    2 1
     2    1    5 2
     3    2    3 2
     4    2   21 1
     5    3    4 1
     6    3   16 1
     7    4    6 2
     8    5    6 1
     9    5   10 1
    10    6    8 1
    11    7    8 2
    12    7    9 1
    13    9   10 2
    14    9   13 1
    15   10   12 1
    16   11   12 2
    17   11   14 1
    18   11   27 1
    19   13   14 2
    20   13   15 1
    21   16   17 1
    22   17   18 1
    23   18   19 1
    24   19   20 1
    25   21   22 1
    26   23   26 2
    27   23   27 1
    28   24   25 2
    29   24   27 1
    30   25   26 1
    31    1   28 1
    32    4   29 1
    33    7   30 1
    34   12   31 1
    35   15   32 1
    36   15   33 1
    37   17   34 1
    38   17   35 1
    39   18   36 1
    40   18   37 1
    41   20   38 1
    42   20   39 1
    43   20   40 1
    44   22   41 1
    45   22   42 1
    46   22   43 1
    47   23   44 1
    48   24   45 1
    49   25   46 1
@<TRIPOS>PROPERTY_DATA
  Total_Score	| 10.8795
  Crash		| -0.7656
  Polar		| 4.1572
  FragIndex	| 1
  FragRMSD	| 0.177

