@<TRIPOS>MOLECULE
BindingDB_32428
 41 44 0 0 0
SMALL
NO_CHARGES


@<TRIPOS>ATOM
1    C        38.7211  -16.5315   13.3190  C     
2    C        37.4523  -16.4988   13.7859  C     
3    C        36.7841  -15.3033   13.9510  C     
4    C        37.3910  -14.1382   13.6368  C     
5    C        39.3903  -15.3605   12.9133  C     
6    C        38.6867  -14.1332   13.1008  C     
7    C        40.4963  -12.8685   12.2414  C     
8    N        39.2584  -12.9537   12.7672  N     
9    C        41.2501  -14.0347   11.9950  C     
10   C        40.6983  -15.3073   12.3352  C     
11   C        42.6941  -16.3894   11.4722  C     
12   C        41.4797  -16.4523   12.0628  C     
13   C        42.5396  -13.9994   11.3904  C     
14   N        43.1675  -15.1716   11.1480  N     
15   N        43.1803  -12.8750   11.0275  N     
16   O        35.5849  -15.3282   14.5733  O     
17   C        34.6109  -14.3470   14.1930  C     
18   O        36.8858  -17.6364   14.2327  O     
19   C        36.3010  -18.4673   13.2116  C     
20   C        43.4769  -17.5232   11.1940  C     
21   C        44.9692  -19.8837   10.7385  C     
22   C        43.6830  -19.9331   11.2979  C     
23   C        44.7652  -17.4563   10.6146  C     
24   C        45.5066  -18.6351   10.3945  C     
25   N        43.0065  -18.7746   11.5007  N     
26   H        39.1774  -17.4060   13.2775  H     
27   H        36.9057  -13.2774   13.7887  H     
28   H        40.8562  -11.9416   12.0233  H     
29   H        41.1267  -17.3406   12.3071  H     
30   H        44.0556  -12.9440   10.6181  H     
31   H        42.7828  -12.0027   11.1757  H     
32   H        34.9486  -13.3468   14.4727  H     
33   H        33.6669  -14.5678   14.7216  H     
34   H        34.4056  -14.3678   13.1233  H     
35   H        35.5642  -17.9182   12.6169  H     
36   H        35.7903  -19.2941   13.7060  H     
37   H        37.0633  -18.8891   12.5500  H     
38   H        45.5034  -20.7457   10.5888  H     
39   H        43.2601  -20.8284   11.5578  H     
40   H        45.1908  -16.5628   10.3590  H     
41   H        46.4407  -18.5819    9.9888  H     
@<TRIPOS>BOND
     1    1    2 2
     2    1    5 1
     3    2    3 1
     4    2   18 1
     5    3    4 2
     6    3   16 1
     7    4    6 1
     8    5    6 1
     9    5   10 2
    10    6    8 2
    11    7    8 1
    12    7    9 2
    13    9   10 1
    14    9   13 1
    15   10   12 1
    16   11   12 2
    17   11   14 1
    18   11   20 1
    19   13   14 2
    20   13   15 1
    21   16   17 1
    22   18   19 1
    23   20   23 1
    24   20   25 2
    25   21   22 2
    26   21   24 1
    27   22   25 1
    28   23   24 2
    29    1   26 1
    30    4   27 1
    31    7   28 1
    32   12   29 1
    33   15   30 1
    34   15   31 1
    35   17   32 1
    36   17   33 1
    37   17   34 1
    38   19   35 1
    39   19   36 1
    40   19   37 1
    41   21   38 1
    42   22   39 1
    43   23   40 1
    44   24   41 1
@<TRIPOS>PROPERTY_DATA
  Total_Score	| 8.8545
  Crash		| -1.4036
  Polar		| 3.0270
  FragIndex	| 1
  FragRMSD	| 0.327

