@<TRIPOS>MOLECULE
BindingDB_32430
 41 44 0 0 0
SMALL
NO_CHARGES


@<TRIPOS>ATOM
1    C        38.7871  -16.5647   13.0552  C     
2    C        37.5367  -16.5652   13.5733  C     
3    C        36.8992  -15.3860   13.9024  C     
4    C        37.4996  -14.2040   13.6368  C     
5    C        39.4672  -15.3622   12.7726  C     
6    C        38.7605  -14.1561   13.0590  C     
7    C        40.5237  -12.8140   12.2298  C     
8    N        39.2998  -12.9487   12.7770  N     
9    C        41.3043  -13.9500   11.9371  C     
10   C        40.7840  -15.2473   12.2266  C     
11   C        42.8459  -16.2444   11.4084  C     
12   C        41.6184  -16.3548   11.9761  C     
13   C        42.5933  -13.8492   11.3465  C     
14   N        43.2604  -15.0000   11.0987  N     
15   N        43.1891  -12.6924   11.0057  N     
16   O        35.7450  -15.4959   14.6004  O     
17   O        36.9688  -17.7565   13.8240  O     
18   C        35.8581  -18.0798   12.9511  C     
19   C        43.7378  -17.3193   11.1664  C     
20   C        43.3597  -18.6936   11.2405  C     
21   C        44.2901  -19.7296   11.0582  C     
22   C        45.1071  -17.0808   10.8527  C     
23   C        34.6139  -14.6709   14.2448  C     
24   C        45.6255  -19.3989   10.7810  C     
25   N        45.9895  -18.0972   10.6796  N     
26   H        39.2015  -17.4392   12.8393  H     
27   H        37.0561  -13.3516   13.8754  H     
28   H        40.8639  -11.8732   12.0432  H     
29   H        41.3110  -17.2354   12.2777  H     
30   H        44.0647  -12.7066   10.5941  H     
31   H        42.7458  -11.8417   11.1656  H     
32   H        35.0127  -17.4088   13.1380  H     
33   H        35.5381  -19.0986   13.1730  H     
34   H        36.1354  -18.0215   11.8878  H     
35   H        42.3960  -18.9767   11.4162  H     
36   H        43.9990  -20.7077   11.1328  H     
37   H        45.4788  -16.1305   10.7745  H     
38   H        34.7339  -13.6674   14.6682  H     
39   H        33.7195  -15.1207   14.6794  H     
40   H        34.4664  -14.6044   13.1602  H     
41   H        46.3252  -20.1287   10.6569  H     
@<TRIPOS>BOND
     1    1    2 2
     2    1    5 1
     3    2    3 1
     4    2   17 1
     5    3    4 2
     6    3   16 1
     7    4    6 1
     8    5    6 1
     9    5   10 2
    10    6    8 2
    11    7    8 1
    12    7    9 2
    13    9   10 1
    14    9   13 1
    15   10   12 1
    16   11   12 2
    17   11   14 1
    18   11   19 1
    19   13   14 2
    20   13   15 1
    21   16   23 1
    22   17   18 1
    23   19   20 1
    24   19   22 2
    25   20   21 2
    26   21   24 1
    27   22   25 1
    28   24   25 2
    29    1   26 1
    30    4   27 1
    31    7   28 1
    32   12   29 1
    33   15   30 1
    34   15   31 1
    35   18   32 1
    36   18   33 1
    37   18   34 1
    38   20   35 1
    39   21   36 1
    40   22   37 1
    41   23   38 1
    42   23   39 1
    43   23   40 1
    44   24   41 1
@<TRIPOS>PROPERTY_DATA
  Total_Score	| 10.7732
  Crash		| -0.9761
  Polar		| 4.3056
  FragIndex	| 1
  FragRMSD	| 0.352

