@<TRIPOS>MOLECULE
BindingDB_32424
 56 60 0 0 0
SMALL
NO_CHARGES


@<TRIPOS>ATOM
1    C        38.9732  -16.6925   13.2306  C     
2    C        37.7002  -16.7513   13.6799  C     
3    C        36.9322  -15.6076   13.7757  C     
4    C        37.4037  -14.4184   13.3958  C     
5    C        39.5384  -15.4811   12.7951  C     
6    C        38.7281  -14.3133   12.9041  C     
7    C        40.4264  -12.9273   12.0098  C     
8    N        39.1852  -13.1086   12.5056  N     
9    C        41.2974  -14.0266   11.8639  C     
10   C        40.8568  -15.3306   12.2557  C     
11   C        42.9890  -16.2485   11.5288  C     
12   C        41.7509  -16.4040   12.0653  C     
13   C        42.6105  -13.8855   11.3301  C     
14   N        43.3543  -15.0043   11.1698  N     
15   N        43.1717  -12.7138   10.9882  N     
16   O        35.6156  -15.7767   14.0557  O     
17   C        35.0316  -15.0386   15.1394  C     
18   C        33.7955  -14.2395   14.6422  C     
19   O        33.1259  -14.9141   13.5572  O     
20   C        31.7691  -15.3133   13.7979  C     
21   O        37.2008  -17.9278   14.0926  O     
22   C        36.6419  -18.7307   13.0328  C     
23   C        45.1281  -17.1355   10.8339  C     
24   C        43.7686  -18.5737   11.6657  C     
25   C        44.9493  -19.2460   11.3453  C     
26   N        45.7753  -18.3095   10.8334  N     
27   N        43.8812  -17.2621   11.3482  N     
28   C        45.2752  -20.6258   11.5304  C     
29   C        44.7152  -22.8977   12.3078  C     
30   C        44.3661  -21.5479   12.1211  C     
31   C        46.5389  -21.1229   11.1330  C     
32   C        46.8915  -22.4745   11.3155  C     
33   C        45.9780  -23.3633   11.9077  C     
34   H        39.4780  -17.5405   13.1801  H     
35   H        36.8309  -13.6159   13.4251  H     
36   H        40.6973  -11.9844   11.7372  H     
37   H        41.4791  -17.3115   12.3423  H     
38   H        44.0793  -12.7007   10.6476  H     
39   H        42.6864  -11.8810   11.0961  H     
40   H        34.7084  -15.7646   15.9043  H     
41   H        35.7350  -14.3373   15.6066  H     
42   H        33.1265  -14.0184   15.4836  H     
43   H        34.1547  -13.2861   14.2527  H     
44   H        31.6935  -15.9279   14.6944  H     
45   H        31.4270  -15.9059   12.9457  H     
46   H        31.1212  -14.4403   13.8879  H     
47   H        35.8336  -18.2052   12.5174  H     
48   H        36.2307  -19.6388   13.4766  H     
49   H        37.4079  -19.0232   12.3087  H     
50   H        45.5504  -16.2643   10.4994  H     
51   H        42.9511  -19.0144   12.0899  H     
52   H        44.0524  -23.5423   12.7398  H     
53   H        43.4440  -21.2480   12.4264  H     
54   H        47.2284  -20.5048   10.6978  H     
55   H        47.8134  -22.8120   11.0227  H     
56   H        46.2328  -24.3461   12.0462  H     
@<TRIPOS>BOND
     1    1    2 2
     2    1    5 1
     3    2    3 1
     4    2   21 1
     5    3    4 2
     6    3   16 1
     7    4    6 1
     8    5    6 1
     9    5   10 2
    10    6    8 2
    11    7    8 1
    12    7    9 2
    13    9   10 1
    14    9   13 1
    15   10   12 1
    16   11   12 2
    17   11   14 1
    18   11   27 1
    19   13   14 2
    20   13   15 1
    21   16   17 1
    22   17   18 1
    23   18   19 1
    24   19   20 1
    25   21   22 1
    26   23   26 2
    27   23   27 1
    28   24   25 2
    29   24   27 1
    30   25   26 1
    31   25   28 1
    32   28   30 2
    33   28   31 1
    34   29   30 1
    35   29   33 2
    36   31   32 2
    37   32   33 1
    38    1   34 1
    39    4   35 1
    40    7   36 1
    41   12   37 1
    42   15   38 1
    43   15   39 1
    44   17   40 1
    45   17   41 1
    46   18   42 1
    47   18   43 1
    48   20   44 1
    49   20   45 1
    50   20   46 1
    51   22   47 1
    52   22   48 1
    53   22   49 1
    54   23   50 1
    55   24   51 1
    56   29   52 1
    57   30   53 1
    58   31   54 1
    59   32   55 1
    60   33   56 1
@<TRIPOS>PROPERTY_DATA
  Total_Score	| 10.6863
  Crash		| -1.1438
  Polar		| 3.9380
  FragIndex	| 1
  FragRMSD	| 0.286

