@<TRIPOS>MOLECULE
BindingDB_32423
 49 52 0 0 0
SMALL
NO_CHARGES


@<TRIPOS>ATOM
1    C        38.9884  -16.5900   13.2569  C     
2    C        37.6655  -16.6285   13.7811  C     
3    C        36.9233  -15.4391   13.9069  C     
4    C        37.5114  -14.2270   13.5332  C     
5    C        39.5842  -15.3862   12.8355  C     
6    C        38.8278  -14.1957   12.9892  C     
7    C        40.5442  -12.8562   12.1291  C     
8    N        39.3333  -13.0017   12.6373  N     
9    C        41.3759  -13.9572   11.9109  C     
10   C        40.9105  -15.2602   12.2613  C     
11   C        43.0507  -16.1915   11.4311  C     
12   C        41.7762  -16.3638   12.0215  C     
13   C        42.6540  -13.8168   11.3323  C     
14   N        43.3994  -14.9183   11.1069  N     
15   N        43.2159  -12.6433   10.9664  N     
16   O        35.6445  -15.5511   14.4485  O     
17   C        34.6733  -14.5243   14.1789  C     
18   C        33.2392  -14.9410   14.6545  C     
19   O        32.3644  -15.0146   13.5192  O     
20   C        30.9807  -15.1930   13.8424  C     
21   O        37.1382  -17.8112   14.2322  O     
22   C        36.6705  -18.6952   13.1977  C     
23   C        45.2087  -17.0437   10.6814  C     
24   C        43.8051  -18.5362   11.3606  C     
25   C        44.9912  -19.1654   10.9993  C     
26   N        45.8504  -18.2214   10.5943  N     
27   N        43.9544  -17.2045   11.1679  N     
28   C        45.2668  -20.6112   11.0753  C     
29   H        39.4860  -17.4859   13.2110  H     
30   H        37.0239  -13.3403   13.6290  H     
31   H        40.8406  -11.9380   11.9028  H     
32   H        41.4853  -17.3021   12.2676  H     
33   H        44.0994  -12.6381   10.5776  H     
34   H        42.7485  -11.8085   11.0972  H     
35   H        34.9473  -13.6183   14.7144  H     
36   H        34.6425  -14.2967   13.1110  H     
37   H        33.2835  -15.9069   15.1557  H     
38   H        32.8737  -14.1959   15.3672  H     
39   H        30.8175  -16.1401   14.3546  H     
40   H        30.4150  -15.1973   12.9158  H     
41   H        30.6160  -14.3727   14.4607  H     
42   H        35.9110  -18.2105   12.5791  H     
43   H        36.2211  -19.5686   13.6724  H     
44   H        37.4915  -19.0426   12.5643  H     
45   H        45.6450  -16.1518   10.4345  H     
46   H        42.9774  -19.0123   11.7213  H     
47   H        45.1474  -20.9580   12.1025  H     
48   H        46.2865  -20.8276   10.7523  H     
49   H        44.5728  -21.1559   10.4336  H     
@<TRIPOS>BOND
     1    1    2 1
     2    1    5 2
     3    2    3 2
     4    2   21 1
     5    3    4 1
     6    3   16 1
     7    4    6 2
     8    5    6 1
     9    5   10 1
    10    6    8 1
    11    7    8 2
    12    7    9 1
    13    9   10 2
    14    9   13 1
    15   10   12 1
    16   11   12 2
    17   11   14 1
    18   11   27 1
    19   13   14 2
    20   13   15 1
    21   16   17 1
    22   17   18 1
    23   18   19 1
    24   19   20 1
    25   21   22 1
    26   23   26 2
    27   23   27 1
    28   24   25 2
    29   24   27 1
    30   25   26 1
    31   25   28 1
    32    1   29 1
    33    4   30 1
    34    7   31 1
    35   12   32 1
    36   15   33 1
    37   15   34 1
    38   17   35 1
    39   17   36 1
    40   18   37 1
    41   18   38 1
    42   20   39 1
    43   20   40 1
    44   20   41 1
    45   22   42 1
    46   22   43 1
    47   22   44 1
    48   23   45 1
    49   24   46 1
    50   28   47 1
    51   28   48 1
    52   28   49 1
@<TRIPOS>PROPERTY_DATA
  Total_Score	| 11.4451
  Crash		| -0.8472
  Polar		| 4.1129
  FragIndex	| 1
  FragRMSD	| 0.251

