@<TRIPOS>MOLECULE
BindingDB_32425
 39 42 0 0 0
SMALL
NO_CHARGES


@<TRIPOS>ATOM
1    C        38.9877  -16.6827   13.1839  C     
2    C        37.7124  -16.7409   13.6376  C     
3    C        36.9639  -15.5999   13.8246  C     
4    C        37.4991  -14.3914   13.5416  C     
5    C        39.5869  -15.4615   12.8082  C     
6    C        38.7925  -14.2934   13.0110  C     
7    C        40.5056  -12.8880   12.1783  C     
8    N        39.2750  -13.0710   12.6932  N     
9    C        41.3509  -13.9899   11.9403  C     
10   C        40.8997  -15.3090   12.2550  C     
11   C        43.0045  -16.2053   11.4205  C     
12   C        41.7824  -16.3846   11.9851  C     
13   C        42.6429  -13.8337   11.3676  C     
14   N        43.3698  -14.9447   11.1224  N     
15   N        43.1855  -12.6498   11.0381  N     
16   O        35.7305  -15.7700   14.3577  O     
17   C        34.7488  -14.7328   14.2350  C     
18   O        37.2224  -17.9272   14.0384  O     
19   C        36.6575  -18.7251   12.9830  C     
20   C        45.1408  -17.0407   10.6162  C     
21   C        43.7541  -18.5333   11.3009  C     
22   C        44.9211  -19.1591   10.8850  C     
23   N        45.7753  -18.2153   10.4763  N     
24   N        43.8946  -17.1992   11.1324  N     
25   H        39.5021  -17.5281   13.1303  H     
26   H        36.9759  -13.5626   13.7224  H     
27   H        40.7939  -11.9357   11.9608  H     
28   H        41.5037  -17.3016   12.2096  H     
29   H        44.0707  -12.6192   10.6409  H     
30   H        42.7061  -11.8218   11.1990  H     
31   H        35.0684  -13.8394   14.7603  H     
32   H        33.8028  -15.0767   14.6942  H     
33   H        34.5409  -14.4953   13.1954  H     
34   H        35.8167  -18.2163   12.5024  H     
35   H        36.2890  -19.6545   13.4190  H     
36   H        37.4081  -18.9805   12.2302  H     
37   H        45.5817  -16.1527   10.3702  H     
38   H        42.9441  -19.0308   11.6749  H     
39   H        45.1063  -20.1632   10.9004  H     
@<TRIPOS>BOND
     1    1    2 2
     2    1    5 1
     3    2    3 1
     4    2   18 1
     5    3    4 2
     6    3   16 1
     7    4    6 1
     8    5    6 1
     9    5   10 2
    10    6    8 2
    11    7    8 1
    12    7    9 2
    13    9   10 1
    14    9   13 1
    15   10   12 1
    16   11   12 2
    17   11   14 1
    18   11   24 1
    19   13   14 2
    20   13   15 1
    21   16   17 1
    22   18   19 1
    23   20   23 2
    24   20   24 1
    25   21   22 2
    26   21   24 1
    27   22   23 1
    28    1   25 1
    29    4   26 1
    30    7   27 1
    31   12   28 1
    32   15   29 1
    33   15   30 1
    34   17   31 1
    35   17   32 1
    36   17   33 1
    37   19   34 1
    38   19   35 1
    39   19   36 1
    40   20   37 1
    41   21   38 1
    42   22   39 1
@<TRIPOS>PROPERTY_DATA
  Total_Score	| 9.6848
  Crash		| -0.6922
  Polar		| 4.0540
  FragIndex	| 1
  FragRMSD	| 0.210

