@<TRIPOS>MOLECULE
BindingDB_32420
 51 54 0 0 0
SMALL
NO_CHARGES


@<TRIPOS>ATOM
1    C        38.6663  -16.5747   13.2043  C     
2    C        37.3678  -16.5346   13.7484  C     
3    C        36.7459  -15.2961   14.0264  C     
4    C        37.4287  -14.1062   13.6907  C     
5    C        39.3744  -15.3914   12.8798  C     
6    C        38.7104  -14.1570   13.1143  C     
7    C        40.5118  -12.9162   12.2412  C     
8    N        39.3133  -12.9934   12.7839  N     
9    C        41.2595  -14.0642   11.9755  C     
10   C        40.7084  -15.3342   12.3262  C     
11   C        42.8168  -16.3917   11.5803  C     
12   C        41.5153  -16.4826   12.1307  C     
13   C        42.5509  -14.0079   11.3936  C     
14   N        43.2485  -15.1549   11.2163  N     
15   N        43.1532  -12.8627   11.0190  N     
16   O        35.5170  -15.3112   14.6494  O     
17   C        34.5027  -14.4185   14.1382  C     
18   C        33.0924  -14.8878   14.5572  C     
19   O        32.6166  -15.8866   13.6364  O     
20   C        31.1879  -15.9485   13.5010  C     
21   O        36.7761  -17.7365   14.0469  O     
22   C        35.6583  -18.0774   13.2017  C     
23   C        44.6786  -19.5744   11.8254  C     
24   C        43.3645  -18.7854   11.9299  C     
25   C        44.9329  -17.4033   10.7994  C     
26   C        45.4135  -18.8639   10.6875  C     
27   N        43.6491  -17.4714   11.4327  N     
28   H        39.0778  -17.4903   13.0429  H     
29   H        36.9886  -13.1997   13.8551  H     
30   H        40.8549  -12.0144   12.0269  H     
31   H        41.1604  -17.4003   12.3860  H     
32   H        44.0488  -12.8907   10.6470  H     
33   H        42.7120  -12.0067   11.1485  H     
34   H        34.6712  -13.4111   14.5348  H     
35   H        34.5353  -14.3704   13.0454  H     
36   H        33.1354  -15.2876   15.5786  H     
37   H        32.4299  -14.0179   14.5508  H     
38   H        30.7105  -16.1615   14.4630  H     
39   H        30.9425  -16.7562   12.8075  H     
40   H        30.7888  -15.0158   13.0919  H     
41   H        34.7584  -17.5420   13.5224  H     
42   H        35.4665  -19.1429   13.3081  H     
43   H        35.8424  -17.8665   12.1417  H     
44   H        45.2506  -19.4817   12.7537  H     
45   H        44.5126  -20.6335   11.6090  H     
46   H        42.5854  -19.2532   11.3184  H     
47   H        43.0447  -18.7704   12.9739  H     
48   H        45.6272  -16.8175   11.4121  H     
49   H        44.8645  -16.9623    9.8007  H     
50   H        46.4967  -18.9607   10.7835  H     
51   H        45.0991  -19.2907    9.7324  H     
@<TRIPOS>BOND
     1    1    2 1
     2    1    5 2
     3    2    3 2
     4    2   21 1
     5    3    4 1
     6    3   16 1
     7    4    6 2
     8    5    6 1
     9    5   10 1
    10    6    8 1
    11    7    8 2
    12    7    9 1
    13    9   10 2
    14    9   13 1
    15   10   12 1
    16   11   12 2
    17   11   14 1
    18   11   27 1
    19   13   14 2
    20   13   15 1
    21   16   17 1
    22   17   18 1
    23   18   19 1
    24   19   20 1
    25   21   22 1
    26   23   24 1
    27   23   26 1
    28   24   27 1
    29   25   26 1
    30   25   27 1
    31    1   28 1
    32    4   29 1
    33    7   30 1
    34   12   31 1
    35   15   32 1
    36   15   33 1
    37   17   34 1
    38   17   35 1
    39   18   36 1
    40   18   37 1
    41   20   38 1
    42   20   39 1
    43   20   40 1
    44   22   41 1
    45   22   42 1
    46   22   43 1
    47   23   44 1
    48   23   45 1
    49   24   46 1
    50   24   47 1
    51   25   48 1
    52   25   49 1
    53   26   50 1
    54   26   51 1
@<TRIPOS>PROPERTY_DATA
  Total_Score	| 9.9014
  Crash		| -2.1422
  Polar		| 2.9970
  FragIndex	| 1
  FragRMSD	| 0.450

