@<TRIPOS>MOLECULE
BindingDB_32418
 47 49 0 0 0
SMALL
NO_CHARGES


@<TRIPOS>ATOM
1    C        38.8285  -16.6046   13.3803  C     
2    C        37.5339  -16.5699   13.9441  C     
3    C        36.8411  -15.3458   14.0404  C     
4    C        37.4270  -14.1738   13.5304  C     
5    C        39.4454  -15.4324   12.8658  C     
6    C        38.7164  -14.2158   12.9653  C     
7    C        40.5012  -12.9688   12.0525  C     
8    N        39.2822  -13.0606   12.5537  N     
9    C        41.3032  -14.0982   11.9082  C     
10   C        40.7782  -15.3705   12.2861  C     
11   C        42.8714  -16.4273   11.4547  C     
12   C        41.5868  -16.5122   12.0601  C     
13   C        42.6098  -14.0227   11.3661  C     
14   N        43.2993  -15.1681   11.1526  N     
15   N        43.2159  -12.8578   11.0530  N     
16   N        43.6584  -17.5201   11.1526  N     
17   C        43.3054  -18.8558   11.5951  C     
18   C        44.8601  -17.3707   10.3583  C     
19   O        35.6715  -15.2714   14.7499  O     
20   C        34.6073  -14.4780   14.1809  C     
21   C        33.2346  -15.0234   14.6626  C     
22   O        32.6753  -16.0236   13.7802  O     
23   C        31.2712  -15.9221   13.5063  C     
24   O        36.9657  -17.6754   14.5211  O     
25   C        36.5139  -18.6643   13.5798  C     
26   H        39.3126  -17.4962   13.3991  H     
27   H        36.9310  -13.2824   13.5989  H     
28   H        40.8136  -12.0683   11.7896  H     
29   H        41.2247  -17.4256   12.3119  H     
30   H        44.1316  -12.8548   10.7348  H     
31   H        42.7557  -12.0134   11.1867  H     
32   H        43.2999  -18.8899   12.6869  H     
33   H        43.9855  -19.6375   11.2502  H     
34   H        42.3134  -19.1228   11.2225  H     
35   H        44.5915  -17.0279    9.3596  H     
36   H        45.4311  -18.2947   10.2333  H     
37   H        45.5356  -16.6420   10.8133  H     
38   H        34.7371  -13.4584   14.5408  H     
39   H        34.6199  -14.4672   13.0891  H     
40   H        33.3806  -15.5247   15.6203  H     
41   H        32.5218  -14.2041   14.8136  H     
42   H        30.6763  -16.0915   14.4120  H     
43   H        31.0183  -16.6939   12.7763  H     
44   H        31.0165  -14.9491   13.0760  H     
45   H        35.8417  -18.2379   12.8280  H     
46   H        35.9626  -19.4258   14.1315  H     
47   H        37.3569  -19.1491   13.0813  H     
@<TRIPOS>BOND
     1    1    2 1
     2    1    5 2
     3    2    3 2
     4    2   24 1
     5    3    4 1
     6    3   19 1
     7    4    6 2
     8    5    6 1
     9    5   10 1
    10    6    8 1
    11    7    8 2
    12    7    9 1
    13    9   10 2
    14    9   13 1
    15   10   12 1
    16   11   12 2
    17   11   14 1
    18   11   16 1
    19   13   14 2
    20   13   15 1
    21   16   17 1
    22   16   18 1
    23   19   20 1
    24   20   21 1
    25   21   22 1
    26   22   23 1
    27   24   25 1
    28    1   26 1
    29    4   27 1
    30    7   28 1
    31   12   29 1
    32   15   30 1
    33   15   31 1
    34   17   32 1
    35   17   33 1
    36   17   34 1
    37   18   35 1
    38   18   36 1
    39   18   37 1
    40   20   38 1
    41   20   39 1
    42   21   40 1
    43   21   41 1
    44   23   42 1
    45   23   43 1
    46   23   44 1
    47   25   45 1
    48   25   46 1
    49   25   47 1
@<TRIPOS>PROPERTY_DATA
  Total_Score	| 9.7570
  Crash		| -1.2406
  Polar		| 2.9629
  FragIndex	| 1
  FragRMSD	| 0.415

