@<TRIPOS>MOLECULE
BindingDB_5547
 51 54 0 0 0
SMALL
NO_CHARGES


@<TRIPOS>ATOM
1    C         6.9556   45.1458   51.4204  C     
2    C         7.5582   43.6099   49.6743  C     
3    N         8.8225   44.1288   49.6260  N     
4    N         6.6584   44.1286   50.5659  N     
5    C         8.2559   45.6617   51.3772  C     
6    C         9.1698   45.1442   50.4655  C     
7    C        10.0908   46.7285   51.6314  C     
8    N         8.8343   46.6340   52.0921  N     
9    N        10.3038   45.8290   50.6523  N     
10   O         6.0944   45.6048   52.3763  O     
11   N         7.2524   42.5871   48.8439  N     
12   C         4.8275   46.1161   51.9165  C     
13   C         4.1649   46.9301   53.0707  C     
14   C         1.6988   45.5911   54.2179  C     
15   C         1.6508   46.3029   52.8412  C     
16   C         2.7247   47.4176   52.7196  C     
17   C         4.1640   46.2171   54.4617  C     
18   C         3.1208   45.0760   54.5560  C     
19   C         6.1029   41.8539   48.7877  C     
20   C         4.0984   40.8781   49.7993  C     
21   C         3.7269   40.3188   48.5595  C     
22   C         4.5623   40.5120   47.4386  C     
23   C         5.7419   41.2708   47.5572  C     
24   C         5.2867   41.6183   49.9162  C     
25   C         0.8460   40.4360   48.4256  C     
26   O         2.2770   38.3836   47.1977  O     
27   S         2.2833   39.3498   48.4609  S     
28   O         2.2274   38.4391   49.7646  O     
29   H        10.7693   47.4044   51.9689  H     
30   H        11.1386   45.7094   50.1750  H     
31   H         7.9152   42.3617   48.1674  H     
32   H         4.9814   46.7837   51.0601  H     
33   H         4.1835   45.2915   51.5998  H     
34   H         4.7850   47.8246   53.1922  H     
35   H         1.3734   46.2902   54.9943  H     
36   H         1.0032   44.7478   54.2137  H     
37   H         1.7948   45.5687   52.0454  H     
38   H         0.6620   46.7456   52.7070  H     
39   H         2.4555   48.2279   53.4049  H     
40   H         2.7047   47.8306   51.7074  H     
41   H         5.1564   45.8247   54.6939  H     
42   H         3.9319   46.9582   55.2333  H     
43   H         3.1251   44.6647   55.5697  H     
44   H         3.3967   44.2732   53.8679  H     
45   H         3.5186   40.7288   50.6282  H     
46   H         4.3314   40.0982   46.5294  H     
47   H         6.3362   41.4029   46.7370  H     
48   H         5.5566   41.9508   50.8430  H     
49   H         0.8378   41.0686   49.3139  H     
50   H        -0.0668   39.8410   48.3972  H     
51   H         0.8959   41.0648   47.5366  H     
@<TRIPOS>BOND
     1    1    4 1
     2    1    5 2
     3    1   10 1
     4    2    3 1
     5    2    4 2
     6    2   11 1
     7    3    6 2
     8    5    6 1
     9    5    8 1
    10    6    9 1
    11    7    8 2
    12    7    9 1
    13   10   12 1
    14   11   19 1
    15   12   13 1
    16   13   16 1
    17   13   17 1
    18   14   15 1
    19   14   18 1
    20   15   16 1
    21   17   18 1
    22   19   23 1
    23   19   24 2
    24   20   21 2
    25   20   24 1
    26   21   22 1
    27   21   27 1
    28   22   23 2
    29   25   27 1
    30   26   27 2
    31   27   28 2
    32    7   29 1
    33    9   30 1
    34   11   31 1
    35   12   32 1
    36   12   33 1
    37   13   34 1
    38   14   35 1
    39   14   36 1
    40   15   37 1
    41   15   38 1
    42   16   39 1
    43   16   40 1
    44   17   41 1
    45   17   42 1
    46   18   43 1
    47   18   44 1
    48   20   45 1
    49   22   46 1
    50   23   47 1
    51   24   48 1
    52   25   49 1
    53   25   50 1
    54   25   51 1
@<TRIPOS>PROPERTY_DATA
  Total_Score	| 10.8841
  Crash		| -0.7645
  Polar		| 4.3711
  FragIndex	| 1
  FragRMSD	| 0.436

