@<TRIPOS>MOLECULE
BindingDB_5546
 56 59 0 0 0
SMALL
NO_CHARGES


@<TRIPOS>ATOM
1    C         6.9183   45.1412   51.3213  C     
2    C         7.5464   43.5083   49.6678  C     
3    N         8.8075   44.0290   49.6035  N     
4    N         6.6444   44.0709   50.5248  N     
5    C         8.2185   45.6607   51.2576  C     
6    C         9.1459   45.0887   50.3920  C     
7    C        10.0680   46.7139   51.4810  C     
8    N         8.8023   46.6616   51.9272  N     
9    N        10.2889   45.7607   50.5585  N     
10   O         6.0126   45.6169   52.2317  O     
11   N         7.2299   42.4795   48.8533  N     
12   C         4.7352   46.0163   51.7004  C     
13   C         3.7320   46.3071   52.8562  C     
14   C         1.3115   45.5244   54.4928  C     
15   C         1.2267   46.6358   53.4169  C     
16   C         2.2804   46.4415   52.2978  C     
17   C         3.8013   45.2146   53.9706  C     
18   C         2.7405   45.4271   55.0823  C     
19   C         6.0584   41.7839   48.7856  C     
20   C         4.0254   40.8128   49.7486  C     
21   C         3.6384   40.3293   48.4813  C     
22   C         4.4810   40.5495   47.3679  C     
23   C         5.6875   41.2606   47.5267  C     
24   C         5.2307   41.5196   49.8993  C     
25   S         2.1783   39.3875   48.3494  S     
26   O         2.2051   38.3536   47.1432  O     
27   O         2.2014   38.4881   49.6629  O     
28   N         0.7732   40.3370   48.3422  N     
29   C        -0.4325   39.8221   48.9326  C     
30   C         0.6833   41.3441   47.3298  C     
31   H        10.7541   47.3986   51.7996  H     
32   H        11.1356   45.6003   50.1087  H     
33   H         7.8942   42.2392   48.1847  H     
34   H         4.8725   46.9221   51.1014  H     
35   H         4.3047   45.2398   51.0567  H     
36   H         4.0144   47.2653   53.3041  H     
37   H         0.6011   45.7407   55.2946  H     
38   H         1.0342   44.5638   54.0479  H     
39   H         0.2256   46.6350   52.9776  H     
40   H         1.3840   47.6059   53.8921  H     
41   H         2.2302   47.2966   51.6173  H     
42   H         2.0203   45.5456   51.7265  H     
43   H         3.6535   44.2261   53.5254  H     
44   H         4.7915   45.2253   54.4355  H     
45   H         2.9667   46.3456   55.6342  H     
46   H         2.7827   44.5922   55.7879  H     
47   H         3.4518   40.6334   50.5754  H     
48   H         4.2408   40.1841   46.4477  H     
49   H         6.2820   41.4158   46.7093  H     
50   H         5.5022   41.8211   50.8403  H     
51   H        -0.9016   39.1007   48.2610  H     
52   H        -1.1442   40.6261   49.1269  H     
53   H        -0.2304   39.3411   49.8891  H     
54   H         1.6071   41.9256   47.2772  H     
55   H        -0.1278   42.0453   47.5312  H     
56   H         0.5033   40.8765   46.3593  H     
@<TRIPOS>BOND
     1    1    4 1
     2    1    5 2
     3    1   10 1
     4    2    3 1
     5    2    4 2
     6    2   11 1
     7    3    6 2
     8    5    6 1
     9    5    8 1
    10    6    9 1
    11    7    8 2
    12    7    9 1
    13   10   12 1
    14   11   19 1
    15   12   13 1
    16   13   16 1
    17   13   17 1
    18   14   15 1
    19   14   18 1
    20   15   16 1
    21   17   18 1
    22   19   23 1
    23   19   24 2
    24   20   21 2
    25   20   24 1
    26   21   22 1
    27   21   25 1
    28   22   23 2
    29   25   26 2
    30   25   27 2
    31   25   28 1
    32   28   29 1
    33   28   30 1
    34    7   31 1
    35    9   32 1
    36   11   33 1
    37   12   34 1
    38   12   35 1
    39   13   36 1
    40   14   37 1
    41   14   38 1
    42   15   39 1
    43   15   40 1
    44   16   41 1
    45   16   42 1
    46   17   43 1
    47   17   44 1
    48   18   45 1
    49   18   46 1
    50   20   47 1
    51   22   48 1
    52   23   49 1
    53   24   50 1
    54   29   51 1
    55   29   52 1
    56   29   53 1
    57   30   54 1
    58   30   55 1
    59   30   56 1
@<TRIPOS>PROPERTY_DATA
  Total_Score	| 11.0835
  Crash		| -1.0155
  Polar		| 4.5889
  FragIndex	| 1
  FragRMSD	| 0.153

