@<TRIPOS>MOLECULE
BindingDB_5542
 49 52 0 0 0
SMALL
NO_CHARGES


@<TRIPOS>ATOM
1    C         7.0247   45.2010   51.3456  C     
2    C         7.6389   43.5631   49.6971  C     
3    N         8.9202   44.0399   49.6642  N     
4    N         6.7310   44.1408   50.5366  N     
5    C         8.3436   45.6717   51.3288  C     
6    C         9.2696   45.0684   50.4759  C     
7    C        10.2518   46.6238   51.6205  C     
8    N         8.9699   46.6290   52.0340  N     
9    N        10.4354   45.6836   50.6760  N     
10   O         6.1049   45.7097   52.2201  O     
11   N         7.3166   42.5431   48.8790  N     
12   C         4.7804   45.9310   51.6920  C     
13   C         3.7925   46.2798   52.8401  C     
14   C         1.3197   45.5623   54.4271  C     
15   C         1.2997   46.7213   53.3986  C     
16   C         2.3552   46.5184   52.2820  C     
17   C         3.8010   45.1686   53.9419  C     
18   C         2.7301   45.3931   55.0416  C     
19   C         6.1151   41.8985   48.7747  C     
20   C         4.4270   40.8815   47.3188  C     
21   C         3.5931   40.6077   48.4222  C     
22   C         4.0423   40.9367   49.7141  C     
23   C         5.2910   41.5794   49.8908  C     
24   C         5.6838   41.5148   47.5015  C     
25   O         2.3064   40.0970   48.3365  O     
26   C         2.0305   39.0577   47.3856  C     
27   H        10.9775   47.2401   51.9800  H     
28   H        11.2763   45.4795   50.2361  H     
29   H         7.9750   42.2887   48.2137  H     
30   H         4.8276   46.7582   50.9790  H     
31   H         4.3896   45.0503   51.1647  H     
32   H         4.1345   47.2136   53.2998  H     
33   H         0.5948   45.7657   55.2199  H     
34   H         1.0229   44.6328   53.9309  H     
35   H         0.3035   46.7845   52.9534  H     
36   H         1.4988   47.6625   53.9160  H     
37   H         2.3574   47.4054   51.6388  H     
38   H         2.0519   45.6653   51.6655  H     
39   H         3.6243   44.1903   53.4824  H     
40   H         4.7824   45.1334   54.4219  H     
41   H         2.9802   46.2840   55.6262  H     
42   H         2.7202   44.5374   55.7231  H     
43   H         4.1342   40.6723   46.3629  H     
44   H         3.4550   40.7413   50.5316  H     
45   H         5.5774   41.8066   50.8356  H     
46   H         6.2356   41.7253   46.6638  H     
47   H         2.1010   39.4395   46.3580  H     
48   H         1.0005   38.7334   47.5448  H     
49   H         2.7072   38.2059   47.5214  H     
@<TRIPOS>BOND
     1    1    4 1
     2    1    5 2
     3    1   10 1
     4    2    3 1
     5    2    4 2
     6    2   11 1
     7    3    6 2
     8    5    6 1
     9    5    8 1
    10    6    9 1
    11    7    8 2
    12    7    9 1
    13   10   12 1
    14   11   19 1
    15   12   13 1
    16   13   16 1
    17   13   17 1
    18   14   15 1
    19   14   18 1
    20   15   16 1
    21   17   18 1
    22   19   23 1
    23   19   24 2
    24   20   21 2
    25   20   24 1
    26   21   22 1
    27   21   25 1
    28   22   23 2
    29   25   26 1
    30    7   27 1
    31    9   28 1
    32   11   29 1
    33   12   30 1
    34   12   31 1
    35   13   32 1
    36   14   33 1
    37   14   34 1
    38   15   35 1
    39   15   36 1
    40   16   37 1
    41   16   38 1
    42   17   39 1
    43   17   40 1
    44   18   41 1
    45   18   42 1
    46   20   43 1
    47   22   44 1
    48   23   45 1
    49   24   46 1
    50   26   47 1
    51   26   48 1
    52   26   49 1
@<TRIPOS>PROPERTY_DATA
  Total_Score	| 8.9722
  Crash		| -0.6821
  Polar		| 2.7259
  FragIndex	| 1
  FragRMSD	| 0.155

