@<TRIPOS>MOLECULE
BindingDB_5549
 54 57 0 0 0
SMALL
NO_CHARGES


@<TRIPOS>ATOM
1    C         6.8309   45.5431   50.9170  C     
2    C         7.6062   43.6649   49.6472  C     
3    N         8.8988   44.0867   49.7586  N     
4    N         6.6004   44.3957   50.2203  N     
5    C         8.1617   45.9743   51.0404  C     
6    C         9.1721   45.2231   50.4483  C     
7    C        10.0351   46.9131   51.4873  C     
8    N         8.7089   47.0291   51.6654  N     
9    N        10.3234   45.8284   50.7452  N     
10   O         5.8122   46.2607   51.4807  O     
11   N         7.3657   42.5355   48.9385  N     
12   C         4.9467   45.5062   52.3635  C     
13   C         4.2851   46.4759   53.3958  C     
14   C         1.5008   45.7031   54.3176  C     
15   C         1.7137   46.3391   52.9186  C     
16   C         3.0067   47.1971   52.8473  C     
17   C         4.0059   45.8029   54.7755  C     
18   C         2.7479   44.9011   54.7676  C     
19   C         6.1756   41.8761   48.8196  C     
20   C         4.1683   40.8544   49.7845  C     
21   C         3.7717   40.4045   48.5037  C     
22   C         4.5508   40.7440   47.3742  C     
23   C         5.7787   41.4108   47.5462  C     
24   C         5.3469   41.5953   49.9354  C     
25   C         3.7336   41.6178   45.3819  C     
26   O         4.1311   40.4307   46.1140  O     
27   N         0.9144   40.2490   48.3629  N     
28   S         2.3650   39.3933   48.3799  S     
29   O         2.4093   38.3279   47.2006  O     
30   O         2.3257   38.4734   49.6774  O     
31   H        10.7211   47.5527   51.8715  H     
32   H        11.2119   45.5343   50.4875  H     
33   H         8.1102   42.2017   48.4133  H     
34   H         4.1784   44.9876   51.7753  H     
35   H         5.5338   44.7510   52.9087  H     
36   H         5.0342   47.2532   53.5803  H     
37   H         1.2964   46.4926   55.0518  H     
38   H         0.6312   45.0386   54.2916  H     
39   H         1.7655   45.5474   52.1680  H     
40   H         0.8538   46.9707   52.6870  H     
41   H         2.8469   48.1076   53.4305  H     
42   H         3.1649   47.5076   51.8114  H     
43   H         4.8668   45.2130   55.0977  H     
44   H         3.8583   46.5875   55.5208  H     
45   H         2.5813   44.4975   55.7737  H     
46   H         2.9032   44.0515   54.0927  H     
47   H         3.6197   40.6368   50.6161  H     
48   H         6.3593   41.5987   46.7265  H     
49   H         5.6306   41.9012   50.8734  H     
50   H         2.9301   42.1670   45.8950  H     
51   H         3.3552   41.3153   44.3997  H     
52   H         4.5874   42.2957   45.2263  H     
53   H         0.3644   40.2970   49.1627  H     
54   H         0.6909   40.8048   47.5988  H     
@<TRIPOS>BOND
     1    1    4 1
     2    1    5 2
     3    1   10 1
     4    2    3 1
     5    2    4 2
     6    2   11 1
     7    3    6 2
     8    5    6 1
     9    5    8 1
    10    6    9 1
    11    7    8 2
    12    7    9 1
    13   10   12 1
    14   11   19 1
    15   12   13 1
    16   13   16 1
    17   13   17 1
    18   14   15 1
    19   14   18 1
    20   15   16 1
    21   17   18 1
    22   19   23 1
    23   19   24 2
    24   20   21 2
    25   20   24 1
    26   21   22 1
    27   21   28 1
    28   22   23 2
    29   22   26 1
    30   25   26 1
    31   27   28 am
    32   28   29 2
    33   28   30 2
    34    7   31 1
    35    9   32 1
    36   11   33 1
    37   12   34 1
    38   12   35 1
    39   13   36 1
    40   14   37 1
    41   14   38 1
    42   15   39 1
    43   15   40 1
    44   16   41 1
    45   16   42 1
    46   17   43 1
    47   17   44 1
    48   18   45 1
    49   18   46 1
    50   20   47 1
    51   23   48 1
    52   24   49 1
    53   25   50 1
    54   25   51 1
    55   25   52 1
    56   27   53 1
    57   27   54 1
@<TRIPOS>PROPERTY_DATA
  Total_Score	| 10.8119
  Crash		| -0.8884
  Polar		| 4.6331
  FragIndex	| 1
  FragRMSD	| 0.494

