@<TRIPOS>MOLECULE
BindingDB_5548
 50 53 0 0 0
SMALL
NO_CHARGES


@<TRIPOS>ATOM
1    C         7.0131   45.3507   51.3613  C     
2    C         7.5923   43.6531   49.7590  C     
3    N         8.8807   44.0969   49.7190  N     
4    N         6.7075   44.2854   50.5765  N     
5    C         8.3429   45.7946   51.3305  C     
6    C         9.2534   45.1521   50.4914  C     
7    C        10.2625   46.7216   51.5833  C     
8    N         8.9858   46.7617   52.0030  N     
9    N        10.4339   45.7492   50.6700  N     
10   O         6.1227   45.8849   52.2545  O     
11   N         7.2400   42.5785   49.0099  N     
12   C         4.7961   46.1639   51.7633  C     
13   C         3.8127   46.3975   52.9429  C     
14   C         1.4692   45.5451   54.6403  C     
15   C         1.3298   46.6799   53.5916  C     
16   C         2.3422   46.5188   52.4278  C     
17   C         3.9327   45.2676   54.0160  C     
18   C         2.9169   45.4404   55.1742  C     
19   C         6.0395   41.9154   48.9518  C     
20   C         3.8189   41.2835   49.8073  C     
21   C         3.5549   40.5348   48.6378  C     
22   C         4.5744   40.4314   47.6501  C     
23   C         5.7955   41.1173   47.8075  C     
24   C         5.0499   41.9324   49.9705  C     
25   C         1.9903   38.8796   46.9782  C     
26   S         1.9739   39.7820   48.5501  S     
27   O         2.4111   38.5657   49.4835  O     
28   H        10.9961   47.3362   51.9360  H     
29   H        11.2679   45.5106   50.2360  H     
30   H         7.9179   42.2527   48.4009  H     
31   H         4.8460   47.0631   51.1414  H     
32   H         4.4041   45.3424   51.1520  H     
33   H         4.0819   47.3478   53.4208  H     
34   H         0.7897   45.7388   55.4734  H     
35   H         1.1810   44.5954   54.1851  H     
36   H         0.3135   46.6802   53.1959  H     
37   H         1.5042   47.6399   54.0775  H     
38   H         2.2579   47.3825   51.7636  H     
39   H         2.0777   45.6270   51.8502  H     
40   H         3.7727   44.2928   53.5418  H     
41   H         4.9421   45.2678   54.4407  H     
42   H         3.1669   46.3395   55.7463  H     
43   H         2.9889   44.5834   55.8513  H     
44   H         3.1197   41.3489   50.5610  H     
45   H         4.4494   39.8527   46.8129  H     
46   H         6.5123   41.0389   47.0753  H     
47   H         5.2072   42.4027   50.8582  H     
48   H         2.0534   39.5986   46.1579  H     
49   H         1.0516   38.3276   46.8902  H     
50   H         2.8376   38.1935   46.9118  H     
@<TRIPOS>BOND
     1    1    4 1
     2    1    5 2
     3    1   10 1
     4    2    3 1
     5    2    4 2
     6    2   11 1
     7    3    6 2
     8    5    6 1
     9    5    8 1
    10    6    9 1
    11    7    8 2
    12    7    9 1
    13   10   12 1
    14   11   19 1
    15   12   13 1
    16   13   16 1
    17   13   17 1
    18   14   15 1
    19   14   18 1
    20   15   16 1
    21   17   18 1
    22   19   23 1
    23   19   24 2
    24   20   21 2
    25   20   24 1
    26   21   22 1
    27   21   26 1
    28   22   23 2
    29   25   26 1
    30   26   27 2
    31    7   28 1
    32    9   29 1
    33   11   30 1
    34   12   31 1
    35   12   32 1
    36   13   33 1
    37   14   34 1
    38   14   35 1
    39   15   36 1
    40   15   37 1
    41   16   38 1
    42   16   39 1
    43   17   40 1
    44   17   41 1
    45   18   42 1
    46   18   43 1
    47   20   44 1
    48   22   45 1
    49   23   46 1
    50   24   47 1
    51   25   48 1
    52   25   49 1
    53   25   50 1
@<TRIPOS>PROPERTY_DATA
  Total_Score	| 10.0586
  Crash		| -1.0636
  Polar		| 3.5882
  FragIndex	| 1
  FragRMSD	| 0.229

