@<TRIPOS>MOLECULE
BindingDB_5530
 45 48 0 0 0
SMALL
NO_CHARGES


@<TRIPOS>ATOM
1    C         6.9362   45.0507   51.3259  C     
2    C         7.4926   43.4535   49.6174  C     
3    N         8.7577   43.9596   49.5427  N     
4    N         6.6213   44.0057   50.5093  N     
5    C         8.2472   45.5464   51.2651  C     
6    C         9.1328   44.9808   50.3553  C     
7    C        10.1338   46.5563   51.4527  C     
8    N         8.8824   46.5115   51.9453  N     
9    N        10.2968   45.6247   50.4965  N     
10   O         6.0560   45.5296   52.2541  O     
11   N         7.1466   42.4420   48.7841  N     
12   C         4.7347   45.8249   51.7570  C     
13   C         3.7816   46.1601   52.9367  C     
14   C         1.3054   45.6234   54.5750  C     
15   C         1.3721   46.8106   53.5818  C     
16   C         2.3606   46.5402   52.4158  C     
17   C         3.7074   44.9856   53.9638  C     
18   C         2.7101   45.2664   55.1163  C     
19   C         5.9608   41.7696   48.7408  C     
20   C         3.9768   40.7586   49.7771  C     
21   C         3.4905   40.3871   48.5037  C     
22   C         4.2597   40.6570   47.3543  C     
23   C         5.4830   41.3442   47.4701  C     
24   C         5.1992   41.4402   49.8907  C     
25   H        10.8614   47.1976   51.7714  H     
26   H        11.1128   45.4554   50.0038  H     
27   H         7.8082   42.1798   48.1308  H     
28   H         4.7801   46.6716   51.0671  H     
29   H         4.3215   44.9735   51.2114  H     
30   H         4.1950   47.0337   53.4478  H     
31   H         0.6535   45.8868   55.4090  H     
32   H         0.8764   44.7530   54.0692  H     
33   H         0.3743   46.9938   53.1762  H     
34   H         1.6896   47.7080   54.1161  H     
35   H         2.4186   47.4383   51.7934  H     
36   H         1.9664   45.7274   51.7976  H     
37   H         3.4053   44.0699   53.4468  H     
38   H         4.6960   44.8104   54.3996  H     
39   H         3.0865   46.0893   55.7300  H     
40   H         2.6338   44.3791   55.7538  H     
41   H         3.4275   40.5394   50.6121  H     
42   H         2.6061   39.8835   48.4169  H     
43   H         3.9224   40.3698   46.4292  H     
44   H         6.0239   41.5545   46.6243  H     
45   H         5.5370   41.6867   50.8243  H     
@<TRIPOS>BOND
     1    1    4 1
     2    1    5 2
     3    1   10 1
     4    2    3 1
     5    2    4 2
     6    2   11 1
     7    3    6 2
     8    5    6 1
     9    5    8 1
    10    6    9 1
    11    7    8 2
    12    7    9 1
    13   10   12 1
    14   11   19 1
    15   12   13 1
    16   13   16 1
    17   13   17 1
    18   14   15 1
    19   14   18 1
    20   15   16 1
    21   17   18 1
    22   19   23 1
    23   19   24 2
    24   20   21 2
    25   20   24 1
    26   21   22 1
    27   22   23 2
    28    7   25 1
    29    9   26 1
    30   11   27 1
    31   12   28 1
    32   12   29 1
    33   13   30 1
    34   14   31 1
    35   14   32 1
    36   15   33 1
    37   15   34 1
    38   16   35 1
    39   16   36 1
    40   17   37 1
    41   17   38 1
    42   18   39 1
    43   18   40 1
    44   20   41 1
    45   21   42 1
    46   22   43 1
    47   23   44 1
    48   24   45 1
@<TRIPOS>PROPERTY_DATA
  Total_Score	| 8.5410
  Crash		| -0.5694
  Polar		| 2.8046
  FragIndex	| 1
  FragRMSD	| 0.194

