@<TRIPOS>MOLECULE
BindingDB_5545
 53 56 0 0 0
SMALL
NO_CHARGES


@<TRIPOS>ATOM
1    C         7.0128   45.2416   51.3893  C     
2    C         7.5843   43.6254   49.7091  C     
3    N         8.8628   44.1114   49.6574  N     
4    N         6.7090   44.2019   50.5716  N     
5    C         8.3248   45.7310   51.3486  C     
6    C         9.2306   45.1411   50.4608  C     
7    C        10.2329   46.7162   51.5451  C     
8    N         8.9696   46.6968   52.0164  N     
9    N        10.3992   45.7804   50.5909  N     
10   O         6.1201   45.7485   52.3021  O     
11   N         7.2259   42.6010   48.8952  N     
12   C         4.8098   46.0806   51.7932  C     
13   C         3.7934   46.2940   52.9560  C     
14   C         1.3366   45.4761   54.5351  C     
15   C         1.2992   46.6636   53.5412  C     
16   C         2.3473   46.5065   52.4029  C     
17   C         3.8127   45.0991   53.9649  C     
18   C         2.7637   45.2567   55.0974  C     
19   C         6.0389   41.9172   48.8149  C     
20   C         4.6625   40.4050   47.4376  C     
21   C         3.6703   40.3505   48.4503  C     
22   C         3.8772   41.0704   49.6426  C     
23   C         5.0393   41.8398   49.8275  C     
24   C         5.8364   41.1715   47.6287  C     
25   S         2.2443   39.3436   48.3301  S     
26   O         2.3688   38.3359   47.0999  O     
27   O         2.2398   38.4939   49.6807  O     
28   N         0.7981   40.2140   48.2072  N     
29   C         0.7215   41.6334   48.2508  C     
30   H        10.9618   47.3566   51.8661  H     
31   H        11.2254   45.6033   50.1018  H     
32   H         7.9017   42.3035   48.2646  H     
33   H         4.8917   47.0060   51.2136  H     
34   H         4.4004   45.3064   51.1376  H     
35   H         4.0875   47.2024   53.4926  H     
36   H         0.6488   45.6780   55.3607  H     
37   H         0.9971   44.5673   54.0283  H     
38   H         0.2960   46.7417   53.1047  H     
39   H         1.5040   47.5902   54.0853  H     
40   H         2.3169   47.4039   51.7747  H     
41   H         2.0570   45.6524   51.7793  H     
42   H         3.6220   44.1632   53.4282  H     
43   H         4.8021   45.0246   54.4231  H     
44   H         3.0357   46.1080   55.7288  H     
45   H         2.7679   44.3599   55.7216  H     
46   H         4.5403   39.8822   46.5583  H     
47   H         3.1875   41.0297   50.4023  H     
48   H         5.1368   42.3044   50.7355  H     
49   H         6.5543   41.1824   46.8869  H     
50   H        -0.0107   39.7229   48.4232  H     
51   H         0.8128   41.9749   49.2829  H     
52   H        -0.2505   41.9383   47.8655  H     
53   H         1.4989   42.0889   47.6367  H     
@<TRIPOS>BOND
     1    1    4 1
     2    1    5 2
     3    1   10 1
     4    2    3 1
     5    2    4 2
     6    2   11 1
     7    3    6 2
     8    5    6 1
     9    5    8 1
    10    6    9 1
    11    7    8 2
    12    7    9 1
    13   10   12 1
    14   11   19 1
    15   12   13 1
    16   13   16 1
    17   13   17 1
    18   14   15 1
    19   14   18 1
    20   15   16 1
    21   17   18 1
    22   19   23 1
    23   19   24 2
    24   20   21 2
    25   20   24 1
    26   21   22 1
    27   21   25 1
    28   22   23 2
    29   25   26 2
    30   25   27 2
    31   25   28 1
    32   28   29 1
    33    7   30 1
    34    9   31 1
    35   11   32 1
    36   12   33 1
    37   12   34 1
    38   13   35 1
    39   14   36 1
    40   14   37 1
    41   15   38 1
    42   15   39 1
    43   16   40 1
    44   16   41 1
    45   17   42 1
    46   17   43 1
    47   18   44 1
    48   18   45 1
    49   20   46 1
    50   22   47 1
    51   23   48 1
    52   24   49 1
    53   28   50 1
    54   29   51 1
    55   29   52 1
    56   29   53 1
@<TRIPOS>PROPERTY_DATA
  Total_Score	| 10.9395
  Crash		| -0.7530
  Polar		| 4.6029
  FragIndex	| 1
  FragRMSD	| 0.148

