@<TRIPOS>MOLECULE
BindingDB_5544
 50 53 0 0 0
SMALL
NO_CHARGES


@<TRIPOS>ATOM
1    C         6.9804   45.2116   51.3741  C     
2    C         7.4660   43.6223   49.6314  C     
3    N         8.7461   44.0874   49.5462  N     
4    N         6.6412   44.1923   50.5489  N     
5    C         8.2946   45.6882   51.2802  C     
6    C         9.1527   45.0983   50.3566  C     
7    C        10.2046   46.6458   51.4380  C     
8    N         8.9573   46.6475   51.9452  N     
9    N        10.3326   45.7085   50.4817  N     
10   O         6.1156   45.7171   52.3130  O     
11   N         7.0613   42.6135   48.8139  N     
12   C         4.8076   46.0810   51.8149  C     
13   C         3.8172   46.3284   52.9786  C     
14   C         1.4005   45.5595   54.6076  C     
15   C         1.3281   46.6914   53.5515  C     
16   C         2.3682   46.4905   52.4201  C     
17   C         3.8727   45.1887   54.0453  C     
18   C         2.8327   45.4038   55.1752  C     
19   C         5.8579   41.9487   48.7223  C     
20   C         3.5427   41.3782   49.3417  C     
21   C         3.5044   40.3635   48.3673  C     
22   C         4.6352   40.1554   47.5567  C     
23   C         5.7974   40.9297   47.7394  C     
24   C         4.6976   42.1594   49.5126  C     
25   N         0.7431   40.3528   48.2053  N     
26   S         2.0941   39.3563   48.2568  S     
27   O         2.1583   38.3977   46.9882  O     
28   O         2.1048   38.5203   49.6092  O     
29   H        10.9489   47.2707   51.7410  H     
30   H        11.1347   45.5072   49.9750  H     
31   H         7.7397   42.2960   48.2021  H     
32   H         4.9014   46.9855   51.2081  H     
33   H         4.3825   45.2942   51.1861  H     
34   H         4.1084   47.2655   53.4654  H     
35   H         0.7112   45.7850   55.4250  H     
36   H         1.0857   44.6149   54.1542  H     
37   H         0.3258   46.7229   53.1182  H     
38   H         1.5154   47.6505   54.0389  H     
39   H         2.3273   47.3499   51.7454  H     
40   H         2.0913   45.6021   51.8436  H     
41   H         3.6860   44.2226   53.5655  H     
42   H         4.8686   45.1480   54.4952  H     
43   H         3.0984   46.3014   55.7421  H     
44   H         2.8641   44.5528   55.8604  H     
45   H         2.7335   41.5519   49.9465  H     
46   H         4.6339   39.4237   46.8462  H     
47   H         6.6140   40.7311   47.1524  H     
48   H         4.6563   42.8601   50.2418  H     
49   H        -0.1343   39.9854   48.3917  H     
50   H         0.8674   41.3155   48.2167  H     
@<TRIPOS>BOND
     1    1    4 1
     2    1    5 2
     3    1   10 1
     4    2    3 1
     5    2    4 2
     6    2   11 1
     7    3    6 2
     8    5    6 1
     9    5    8 1
    10    6    9 1
    11    7    8 2
    12    7    9 1
    13   10   12 1
    14   11   19 1
    15   12   13 1
    16   13   16 1
    17   13   17 1
    18   14   15 1
    19   14   18 1
    20   15   16 1
    21   17   18 1
    22   19   23 1
    23   19   24 2
    24   20   21 2
    25   20   24 1
    26   21   22 1
    27   21   26 1
    28   22   23 2
    29   25   26 am
    30   26   27 2
    31   26   28 2
    32    7   29 1
    33    9   30 1
    34   11   31 1
    35   12   32 1
    36   12   33 1
    37   13   34 1
    38   14   35 1
    39   14   36 1
    40   15   37 1
    41   15   38 1
    42   16   39 1
    43   16   40 1
    44   17   41 1
    45   17   42 1
    46   18   43 1
    47   18   44 1
    48   20   45 1
    49   22   46 1
    50   23   47 1
    51   24   48 1
    52   25   49 1
    53   25   50 1
@<TRIPOS>PROPERTY_DATA
  Total_Score	| 9.7316
  Crash		| -1.0860
  Polar		| 4.4833
  FragIndex	| 1
  FragRMSD	| 0.293

