@<TRIPOS>MOLECULE
BindingDB_50293118
 32 34 0 0 0
SMALL
NO_CHARGES


@<TRIPOS>ATOM
1    C        13.8783   41.7746    9.8500  C     
2    C        13.9264   42.0498    8.4628  C     
3    C        13.8195   41.0104    7.5178  C     
4    C        13.7259   40.4357   10.2934  C     
5    C        13.6276   39.4069    9.3348  C     
6    C        13.6618   39.6936    7.9719  C     
7    N        13.5107   38.5996    7.2267  N     
8    C        13.3699   37.4902    7.9261  C     
9    S        13.4065   37.7161    9.6318  S     
10   C        13.1680   36.2530    7.2983  C     
11   C        12.7324   36.1957    5.9498  C     
12   C        12.5263   34.9740    5.2959  C     
13   C        12.7927   33.7593    5.9504  C     
14   C        13.1923   33.7777    7.3040  C     
15   C        13.3791   35.0130    7.9685  C     
16   O        13.8905   42.8390   10.7191  O     
17   C        14.7684   42.7108   11.8479  C     
18   O        12.6479   32.5956    5.2367  O     
19   C        13.7695   31.6988    5.3305  C     
20   H        14.0193   43.0166    8.1426  H     
21   H        13.8337   41.2168    6.5191  H     
22   H        13.6666   40.2119   11.2870  H     
23   H        12.5593   37.0451    5.4154  H     
24   H        12.1932   34.9608    4.3271  H     
25   H        13.3741   32.8916    7.7982  H     
26   H        13.6965   34.9881    8.9423  H     
27   H        14.3773   41.9785   12.5578  H     
28   H        14.8213   43.6828   12.3638  H     
29   H        15.7833   42.4304   11.5444  H     
30   H        14.7199   32.1969    5.0942  H     
31   H        13.6330   30.8771    4.5995  H     
32   H        13.8135   31.2762    6.3421  H     
@<TRIPOS>BOND
     1    1    2 2
     2    1    4 1
     3    1   16 1
     4    2    3 1
     5    3    6 2
     6    4    5 2
     7    5    6 1
     8    5    9 1
     9    6    7 1
    10    7    8 2
    11    8    9 1
    12    8   10 1
    13   10   11 2
    14   10   15 1
    15   11   12 1
    16   12   13 2
    17   13   14 1
    18   13   18 1
    19   14   15 2
    20   16   17 1
    21   18   19 1
    22    2   20 1
    23    3   21 1
    24    4   22 1
    25   11   23 1
    26   12   24 1
    27   14   25 1
    28   15   26 1
    29   17   27 1
    30   17   28 1
    31   17   29 1
    32   19   30 1
    33   19   31 1
    34   19   32 1
@<TRIPOS>PROPERTY_DATA
  Total_Score	| 3.2411
  Crash		| -3.8124
  Polar		| 0.1704
  FragIndex	| 1
  FragRMSD	| 0.292

