@<TRIPOS>MOLECULE
BindingDB_50293110
 28 30 0 0 0
SMALL
NO_CHARGES


@<TRIPOS>ATOM
1    C        14.1442   41.9720    8.3967  C     
2    C        14.1241   41.7376    9.7927  C     
3    C        13.8514   40.4312   10.2711  C     
4    C        13.9142   40.9275    7.4809  C     
5    C        13.6808   39.6308    7.9716  C     
6    C        13.6497   39.3901    9.3398  C     
7    S        13.3539   37.7227    9.6865  S     
8    C        13.3126   37.4237    7.9896  C     
9    N        13.4770   38.5111    7.2625  N     
10   C        13.1000   36.1556    7.4249  C     
11   C        13.3392   34.9657    8.1653  C     
12   C        13.1074   33.6946    7.6111  C     
13   C        12.6316   33.5712    6.2983  C     
14   C        12.3719   34.7331    5.5487  C     
15   C        12.6295   36.0036    6.0954  C     
16   O        14.3125   42.8210   10.6087  O     
17   C        15.0404   42.6247   11.8305  C     
18   F        12.4591   32.3907    5.7748  F     
19   H        14.3263   42.9200    8.0440  H     
20   H        13.8042   40.2364   11.2719  H     
21   H        13.9266   41.1071    6.4779  H     
22   H        13.7022   35.0044    9.1215  H     
23   H        13.3022   32.8588    8.1635  H     
24   H        11.9993   34.6462    4.5993  H     
25   H        12.4385   36.8233    5.5164  H     
26   H        14.4200   42.1020   12.5586  H     
27   H        15.3066   43.6116   12.2346  H     
28   H        15.9660   42.0715   11.6765  H     
@<TRIPOS>BOND
     1    1    2 2
     2    1    4 1
     3    2    3 1
     4    2   16 1
     5    3    6 2
     6    4    5 2
     7    5    6 1
     8    5    9 1
     9    6    7 1
    10    7    8 1
    11    8    9 2
    12    8   10 1
    13   10   11 2
    14   10   15 1
    15   11   12 1
    16   12   13 2
    17   13   14 1
    18   13   18 1
    19   14   15 2
    20   16   17 1
    21    1   19 1
    22    3   20 1
    23    4   21 1
    24   11   22 1
    25   12   23 1
    26   14   24 1
    27   15   25 1
    28   17   26 1
    29   17   27 1
    30   17   28 1
@<TRIPOS>PROPERTY_DATA
  Total_Score	| 5.0243
  Crash		| -1.3013
  Polar		| 0.1340
  FragIndex	| 1
  FragRMSD	| 0.178

