@<TRIPOS>MOLECULE
BindingDB_50293106
 28 30 0 0 0
SMALL
NO_CHARGES


@<TRIPOS>ATOM
1    C        14.0952   41.6929    9.7805  C     
2    C        14.1173   41.9003    8.3783  C     
3    C        13.9028   40.8372    7.4747  C     
4    C        13.8254   40.3887   10.2709  C     
5    C        13.6269   39.3335    9.3644  C     
6    C        13.6683   39.5496    7.9865  C     
7    N        13.4699   38.4268    7.2836  N     
8    C        13.3006   37.3473    8.0280  C     
9    S        13.3268   37.6736    9.7276  S     
10   C        13.0660   36.0838    7.4535  C     
11   C        12.5657   35.9950    6.1258  C     
12   C        12.2810   34.7577    5.5237  C     
13   C        12.5121   33.5666    6.2264  C     
14   C        13.0186   33.6185    7.5333  C     
15   C        13.3033   34.8571    8.1412  C     
16   O        14.3256   42.8075   10.5506  O     
17   C        14.9879   42.6950   11.8314  C     
18   F        13.8353   34.7948    9.3347  F     
19   H        14.2952   42.8377    8.0079  H     
20   H        13.9322   40.9984    6.4641  H     
21   H        13.7769   40.2013   11.2748  H     
22   H        12.3985   36.8409    5.5769  H     
23   H        11.9080   34.7288    4.5743  H     
24   H        12.3305   32.6659    5.7802  H     
25   H        13.2059   32.7422    8.0282  H     
26   H        14.3265   42.2036   12.5499  H     
27   H        15.2182   43.6979   12.1951  H     
28   H        15.9257   42.1281   11.7437  H     
@<TRIPOS>BOND
     1    1    2 2
     2    1    4 1
     3    1   16 1
     4    2    3 1
     5    3    6 2
     6    4    5 2
     7    5    6 1
     8    5    9 1
     9    6    7 1
    10    7    8 2
    11    8    9 1
    12    8   10 1
    13   10   11 2
    14   10   15 1
    15   11   12 1
    16   12   13 2
    17   13   14 1
    18   14   15 2
    19   15   18 1
    20   16   17 1
    21    2   19 1
    22    3   20 1
    23    4   21 1
    24   11   22 1
    25   12   23 1
    26   13   24 1
    27   14   25 1
    28   17   26 1
    29   17   27 1
    30   17   28 1
@<TRIPOS>PROPERTY_DATA
  Total_Score	| 5.6583
  Crash		| -0.8369
  Polar		| 0.1006
  FragIndex	| 1
  FragRMSD	| 0.128

