@<TRIPOS>MOLECULE
BindingDB_50293130
 42 45 0 0 0
SMALL
NO_CHARGES


@<TRIPOS>ATOM
1    C        14.1630   41.7570    9.6941  C     
2    C        14.1722   41.9583    8.2935  C     
3    C        13.8998   40.8999    7.4098  C     
4    C        13.8705   40.4688   10.2067  C     
5    C        13.6205   39.4157    9.3093  C     
6    C        13.6217   39.6177    7.9334  C     
7    N        13.3619   38.4880    7.2579  N     
8    C        13.1822   37.4357    8.0236  C     
9    S        13.2804   37.7775    9.7227  S     
10   C        12.9246   36.1534    7.5019  C     
11   C        12.6565   35.9752    6.1167  C     
12   C        12.3896   34.6862    5.6004  C     
13   C        12.4771   33.5630    6.4262  C     
14   C        12.7620   33.6886    7.7964  C     
15   C        12.9596   34.9920    8.3196  C     
16   O        14.3724   42.8405   10.5132  O     
17   C        15.0666   42.6257   11.7630  C     
18   O        12.8311   32.5212    8.5210  O     
19   C        13.5377   32.3670    9.7723  C     
20   C        12.7505   32.8934   10.9130  C     
21   C        13.1042   34.1036   11.5623  C     
22   C        12.3205   34.6156   12.6171  C     
23   C        11.1915   33.9037   13.0617  C     
24   C        10.8567   32.6739   12.4604  C     
25   C        11.6283   32.1794   11.3945  C     
26   H        14.3847   42.8853    7.9050  H     
27   H        13.9214   41.0421    6.3966  H     
28   H        13.8529   40.2992   11.2124  H     
29   H        12.5919   36.7763    5.4777  H     
30   H        12.1336   34.5742    4.6116  H     
31   H        12.3177   32.6327    6.0202  H     
32   H        13.1373   35.0747    9.3193  H     
33   H        14.3877   42.1725   12.4981  H     
34   H        15.3906   43.5990   12.1416  H     
35   H        15.9455   41.9833   11.6325  H     
36   H        13.6708   31.2958    9.9278  H     
37   H        14.5359   32.8200    9.7114  H     
38   H        13.9151   34.6411   11.2510  H     
39   H        12.5667   35.5052   13.0534  H     
40   H        10.6171   34.2804   13.8223  H     
41   H        10.0413   32.1477   12.8047  H     
42   H        11.3523   31.2965   10.9537  H     
@<TRIPOS>BOND
     1    1    2 2
     2    1    4 1
     3    1   16 1
     4    2    3 1
     5    3    6 2
     6    4    5 2
     7    5    6 1
     8    5    9 1
     9    6    7 1
    10    7    8 2
    11    8    9 1
    12    8   10 1
    13   10   11 2
    14   10   15 1
    15   11   12 1
    16   12   13 2
    17   13   14 1
    18   14   15 2
    19   14   18 1
    20   16   17 1
    21   18   19 1
    22   19   20 1
    23   20   21 2
    24   20   25 1
    25   21   22 1
    26   22   23 2
    27   23   24 1
    28   24   25 2
    29    2   26 1
    30    3   27 1
    31    4   28 1
    32   11   29 1
    33   12   30 1
    34   13   31 1
    35   15   32 1
    36   17   33 1
    37   17   34 1
    38   17   35 1
    39   19   36 1
    40   19   37 1
    41   21   38 1
    42   22   39 1
    43   23   40 1
    44   24   41 1
    45   25   42 1
@<TRIPOS>PROPERTY_DATA
  Total_Score	| 7.0589
  Crash		| -1.1068
  Polar		| 0.1580
  FragIndex	| 1
  FragRMSD	| 0.246

