@<TRIPOS>MOLECULE
BindingDB_50293126
 42 45 0 0 0
SMALL
NO_CHARGES


@<TRIPOS>ATOM
1    C        14.1533   41.6842    9.7545  C     
2    C        14.2367   41.8537    8.3529  C     
3    C        13.9790   40.7790    7.4787  C     
4    C        13.7912   40.4210   10.2803  C     
5    C        13.5368   39.3616    9.3962  C     
6    C        13.6257   39.5319    8.0225  C     
7    N        13.3553   38.4009    7.3624  N     
8    C        13.0522   37.3609    8.1203  C     
9    S        13.0687   37.7555    9.8018  S     
10   C        12.8269   36.0835    7.5525  C     
11   C        12.5339   35.9915    6.1611  C     
12   C        12.3681   34.7565    5.5137  C     
13   C        12.5730   33.5629    6.2164  C     
14   C        12.8425   33.6166    7.5922  C     
15   C        12.9052   34.8544    8.2825  C     
16   O        14.3613   42.7907   10.5396  O     
17   C        15.0867   42.5914   11.7654  C     
18   O        12.9450   34.8923    9.6610  O     
19   C        13.1932   33.7440   10.4910  C     
20   C        14.6514   33.4683   10.5810  C     
21   C        15.1811   32.2088   10.2137  C     
22   C        16.5694   31.9771   10.2708  C     
23   C        17.4402   32.9961   10.6969  C     
24   C        16.9230   34.2512   11.0656  C     
25   C        15.5375   34.4862   11.0052  C     
26   H        14.4762   42.7689    7.9638  H     
27   H        14.0392   40.9068    6.4651  H     
28   H        13.7183   40.2643   11.2845  H     
29   H        12.4141   36.8343    5.5892  H     
30   H        12.1042   34.7247    4.5307  H     
31   H        12.4957   32.6619    5.7404  H     
32   H        12.9998   32.7417    8.0971  H     
33   H        14.4115   42.2251   12.5421  H     
34   H        15.4740   43.5540   12.0957  H     
35   H        15.9242   41.8993   11.6496  H     
36   H        12.8260   33.9748   11.4918  H     
37   H        12.5991   32.9028   10.1019  H     
38   H        14.5672   31.4547    9.8926  H     
39   H        16.9505   31.0658    9.9996  H     
40   H        18.4472   32.8267   10.7415  H     
41   H        17.5504   34.9945   11.3738  H     
42   H        15.1751   35.4072   11.2648  H     
@<TRIPOS>BOND
     1    1    2 2
     2    1    4 1
     3    1   16 1
     4    2    3 1
     5    3    6 2
     6    4    5 2
     7    5    6 1
     8    5    9 1
     9    6    7 1
    10    7    8 2
    11    8    9 1
    12    8   10 1
    13   10   11 2
    14   10   15 1
    15   11   12 1
    16   12   13 2
    17   13   14 1
    18   14   15 2
    19   15   18 1
    20   16   17 1
    21   18   19 1
    22   19   20 1
    23   20   21 2
    24   20   25 1
    25   21   22 1
    26   22   23 2
    27   23   24 1
    28   24   25 2
    29    2   26 1
    30    3   27 1
    31    4   28 1
    32   11   29 1
    33   12   30 1
    34   13   31 1
    35   14   32 1
    36   17   33 1
    37   17   34 1
    38   17   35 1
    39   19   36 1
    40   19   37 1
    41   21   38 1
    42   22   39 1
    43   23   40 1
    44   24   41 1
    45   25   42 1
@<TRIPOS>PROPERTY_DATA
  Total_Score	| 6.6577
  Crash		| -1.2543
  Polar		| 0.0782
  FragIndex	| 1
  FragRMSD	| 0.220

