@<TRIPOS>MOLECULE
BindingDB_50293129
 24 26 0 0 0
SMALL
NO_CHARGES


@<TRIPOS>ATOM
1    C        14.0374   41.7037    9.6913  C     
2    C        14.0868   41.9291    8.2982  C     
3    C        13.8673   40.8676    7.3986  C     
4    C        13.7992   40.4086   10.1920  C     
5    C        13.6134   39.3502    9.2851  C     
6    C        13.6290   39.5806    7.9118  C     
7    N        13.4145   38.4646    7.2105  N     
8    C        13.2764   37.3851    7.9583  C     
9    S        13.3303   37.6885    9.6543  S     
10   C        13.0474   36.1226    7.4022  C     
11   C        12.5570   35.9913    6.0786  C     
12   C        12.2606   34.7326    5.5247  C     
13   C        12.4848   33.5635    6.2648  C     
14   C        12.9880   33.6614    7.5695  C     
15   C        13.2731   34.9217    8.1222  C     
16   F        13.2021   32.5782    8.2648  F     
17   H        14.1845   42.4800   10.3382  H     
18   H        14.2741   42.8673    7.9402  H     
19   H        13.8867   41.0314    6.3896  H     
20   H        13.7710   40.2398   11.1996  H     
21   H        12.3973   36.8197    5.5032  H     
22   H        11.8698   34.6622    4.5826  H     
23   H        12.2892   32.6465    5.8594  H     
24   H        13.6663   34.9450    9.0627  H     
@<TRIPOS>BOND
     1    1    2 2
     2    1    4 1
     3    2    3 1
     4    3    6 2
     5    4    5 2
     6    5    6 1
     7    5    9 1
     8    6    7 1
     9    7    8 2
    10    8    9 1
    11    8   10 1
    12   10   11 2
    13   10   15 1
    14   11   12 1
    15   12   13 2
    16   13   14 1
    17   14   15 2
    18   14   16 1
    19    1   17 1
    20    2   18 1
    21    3   19 1
    22    4   20 1
    23   11   21 1
    24   12   22 1
    25   13   23 1
    26   15   24 1
@<TRIPOS>PROPERTY_DATA
  Total_Score	| 4.5231
  Crash		| -0.6829
  Polar		| 0.1637
  FragIndex	| 1
  FragRMSD	| 0.151

