@<TRIPOS>MOLECULE
BindingDB_50293109
 31 33 0 0 0
SMALL
NO_CHARGES


@<TRIPOS>ATOM
1    C        14.1304   41.7159    9.7517  C     
2    C        14.1511   41.9579    8.3550  C     
3    C        13.9128   40.9177    7.4326  C     
4    C        13.8389   40.4027   10.2100  C     
5    C        13.6333   39.3789    9.2816  C     
6    C        13.6602   39.6183    7.9104  C     
7    N        13.4240   38.4961    7.2176  N     
8    C        13.2414   37.4170    7.9563  C     
9    S        13.3046   37.7294    9.6486  S     
10   C        12.9831   36.1438    7.4211  C     
11   C        12.6424   35.9736    6.0527  C     
12   C        12.3295   34.7030    5.5323  C     
13   C        12.3888   33.5657    6.3544  C     
14   C        12.7335   33.6887    7.7142  C     
15   C        13.0229   34.9696    8.2249  C     
16   O        14.3187   42.8007   10.5736  O     
17   C        15.0768   42.6498   11.7929  C     
18   C        12.7755   32.4786    8.5733  C     
19   H        14.3338   42.9030    8.0043  H     
20   H        13.9182   41.1003    6.4296  H     
21   H        13.7776   40.1873   11.2077  H     
22   H        12.5956   36.7768    5.4209  H     
23   H        12.0545   34.6015    4.5532  H     
24   H        12.1812   32.6482    5.9580  H     
25   H        13.2701   35.0368    9.2153  H     
26   H        14.4752   42.1696   12.5680  H     
27   H        15.3496   43.6500   12.1488  H     
28   H        15.9946   42.0758   11.6328  H     
29   H        11.7944   32.0026    8.5930  H     
30   H        13.0610   32.7140    9.6008  H     
31   H        13.5011   31.7706    8.1727  H     
@<TRIPOS>BOND
     1    1    2 2
     2    1    4 1
     3    1   16 1
     4    2    3 1
     5    3    6 2
     6    4    5 2
     7    5    6 1
     8    5    9 1
     9    6    7 1
    10    7    8 2
    11    8    9 1
    12    8   10 1
    13   10   11 2
    14   10   15 1
    15   11   12 1
    16   12   13 2
    17   13   14 1
    18   14   15 2
    19   14   18 1
    20   16   17 1
    21    2   19 1
    22    3   20 1
    23    4   21 1
    24   11   22 1
    25   12   23 1
    26   13   24 1
    27   15   25 1
    28   17   26 1
    29   17   27 1
    30   17   28 1
    31   18   29 1
    32   18   30 1
    33   18   31 1
@<TRIPOS>PROPERTY_DATA
  Total_Score	| 6.0251
  Crash		| -1.0728
  Polar		| 0.1627
  FragIndex	| 1
  FragRMSD	| 0.205

