@<TRIPOS>MOLECULE
BindingDB_50293128
 29 31 0 0 0
SMALL
NO_CHARGES


@<TRIPOS>ATOM
1    C        14.2128   41.8273    9.5642  C     
2    C        14.2144   41.8935    8.1522  C     
3    C        13.9179   40.7528    7.3742  C     
4    C        13.9171   40.5928   10.2030  C     
5    C        13.5907   39.4803    9.4191  C     
6    C        13.6026   39.5469    8.0274  C     
7    N        13.2897   38.3666    7.4677  N     
8    C        13.0226   37.4111    8.3376  C     
9    S        13.1165   37.9185    9.9826  S     
10   C        12.8089   36.0797    7.9605  C     
11   C        12.2521   35.1384    8.8615  C     
12   C        12.1758   33.7730    8.5407  C     
13   C        12.6395   33.3078    7.3004  C     
14   C        13.1293   34.2342    6.3613  C     
15   C        13.1955   35.6004    6.6865  C     
16   O        14.5954   42.9595   10.2398  O     
17   C        13.8610   43.3385   11.4194  C     
18   C        12.6514   32.0301    7.0689  C     
19   N        12.6840   30.8956    6.9113  N     
20   H        14.4444   42.7801    7.6870  H     
21   H        13.9074   40.8075    6.3508  H     
22   H        13.9281   40.5153   11.2229  H     
23   H        11.9259   35.4251    9.7880  H     
24   H        11.7874   33.1187    9.2318  H     
25   H        13.4539   33.9272    5.4433  H     
26   H        13.5756   36.2345    5.9867  H     
27   H        12.7832   43.3672   11.2398  H     
28   H        14.1903   44.3330   11.7134  H     
29   H        14.0665   42.6486   12.2435  H     
@<TRIPOS>BOND
     1    1    2 2
     2    1    4 1
     3    1   16 1
     4    2    3 1
     5    3    6 2
     6    4    5 2
     7    5    6 1
     8    5    9 1
     9    6    7 1
    10    7    8 2
    11    8    9 1
    12    8   10 1
    13   10   11 2
    14   10   15 1
    15   11   12 1
    16   12   13 2
    17   13   14 1
    18   13   18 1
    19   14   15 2
    20   16   17 1
    21   18   19 3
    22    2   20 1
    23    3   21 1
    24    4   22 1
    25   11   23 1
    26   12   24 1
    27   14   25 1
    28   15   26 1
    29   17   27 1
    30   17   28 1
    31   17   29 1
@<TRIPOS>PROPERTY_DATA
  Total_Score	| 4.0020
  Crash		| -1.9142
  Polar		| 0.0483
  FragIndex	| 1
  FragRMSD	| 0.805

