@<TRIPOS>MOLECULE
BindingDB_50293122
 32 34 0 0 0
SMALL
NO_CHARGES


@<TRIPOS>ATOM
1    C        14.0884   41.7353    9.8184  C     
2    C        14.1442   41.9105    8.4129  C     
3    C        13.9378   40.8289    7.5327  C     
4    C        13.7962   40.4362   10.3313  C     
5    C        13.6065   39.3697    9.4415  C     
6    C        13.6751   39.5559    8.0623  C     
7    N        13.4706   38.4175    7.4004  N     
8    C        13.2597   37.3577    8.1683  C     
9    S        13.2463   37.7366    9.8500  S     
10   C        13.0364   36.0817    7.6200  C     
11   C        12.7525   35.9478    6.2296  C     
12   C        12.4363   34.7085    5.6401  C     
13   C        12.4300   33.5426    6.4271  C     
14   C        12.7259   33.6263    7.7885  C     
15   C        13.0360   34.8705    8.3884  C     
16   O        14.2587   42.8605   10.6027  O     
17   C        15.0186   42.7598   11.8220  C     
18   O        13.2380   34.8378    9.7411  O     
19   C        14.5693   34.4734   10.1466  C     
20   H        14.3332   42.8374    8.0319  H     
21   H        13.9802   40.9669    6.5226  H     
22   H        13.7246   40.2648   11.3405  H     
23   H        12.7522   36.7647    5.6089  H     
24   H        12.1955   34.6523    4.6475  H     
25   H        12.2124   32.6440    6.0044  H     
26   H        12.7051   32.7731    8.3553  H     
27   H        14.3929   42.3844   12.6284  H     
28   H        15.3579   43.7570   12.0982  H     
29   H        15.8957   42.1225   11.7130  H     
30   H        14.7788   33.4294    9.9038  H     
31   H        14.6396   34.5942   11.2278  H     
32   H        15.3182   35.1175    9.6814  H     
@<TRIPOS>BOND
     1    1    2 2
     2    1    4 1
     3    1   16 1
     4    2    3 1
     5    3    6 2
     6    4    5 2
     7    5    6 1
     8    5    9 1
     9    6    7 1
    10    7    8 2
    11    8    9 1
    12    8   10 1
    13   10   11 2
    14   10   15 1
    15   11   12 1
    16   12   13 2
    17   13   14 1
    18   14   15 2
    19   15   18 1
    20   16   17 1
    21   18   19 1
    22    2   20 1
    23    3   21 1
    24    4   22 1
    25   11   23 1
    26   12   24 1
    27   13   25 1
    28   14   26 1
    29   17   27 1
    30   17   28 1
    31   17   29 1
    32   19   30 1
    33   19   31 1
    34   19   32 1
@<TRIPOS>PROPERTY_DATA
  Total_Score	| 5.6465
  Crash		| -0.9583
  Polar		| 0.0599
  FragIndex	| 1
  FragRMSD	| 0.220

