@<TRIPOS>MOLECULE
BindingDB_50293127
 28 30 0 0 0
SMALL
NO_CHARGES


@<TRIPOS>ATOM
1    C        14.1086   41.8112    9.8518  C     
2    C        14.1393   42.0305    8.4571  C     
3    C        13.9585   40.9561    7.5538  C     
4    C        13.8284   40.5055   10.3388  C     
5    C        13.6510   39.4533    9.4338  C     
6    C        13.7400   39.6657    8.0629  C     
7    N        13.5986   38.5239    7.3785  N     
8    C        13.4007   37.4495    8.1224  C     
9    S        13.2554   37.8372    9.7984  S     
10   C        13.1942   36.1667    7.5744  C     
11   C        12.7447   36.0664    6.2223  C     
12   C        12.4335   34.8319    5.6302  C     
13   C        12.5938   33.6461    6.3547  C     
14   C        13.0514   33.7008    7.6790  C     
15   C        13.3691   34.9354    8.2844  C     
16   O        14.2790   42.9157   10.6561  O     
17   C        14.9760   42.7657   11.9105  C     
18   Cl       14.0528   34.7787    9.8395  Cl    
19   F        12.3538   32.4942    5.7958  F     
20   H        14.2961   42.9714    8.0839  H     
21   H        13.9777   41.1160    6.5433  H     
22   H        13.7581   40.3186   11.3429  H     
23   H        12.6092   36.9034    5.6495  H     
24   H        12.0847   34.7923    4.6682  H     
25   H        13.1767   32.8259    8.1942  H     
26   H        14.3367   42.2806   12.6514  H     
27   H        15.2314   43.7550   12.2776  H     
28   H        15.8977   42.1889   11.7959  H     
@<TRIPOS>BOND
     1    1    2 2
     2    1    4 1
     3    1   16 1
     4    2    3 1
     5    3    6 2
     6    4    5 2
     7    5    6 1
     8    5    9 1
     9    6    7 1
    10    7    8 2
    11    8    9 1
    12    8   10 1
    13   10   11 2
    14   10   15 1
    15   11   12 1
    16   12   13 2
    17   13   14 1
    18   13   19 1
    19   14   15 2
    20   15   18 1
    21   16   17 1
    22    2   20 1
    23    3   21 1
    24    4   22 1
    25   11   23 1
    26   12   24 1
    27   14   25 1
    28   17   26 1
    29   17   27 1
    30   17   28 1
@<TRIPOS>PROPERTY_DATA
  Total_Score	| 4.8669
  Crash		| -1.3954
  Polar		| 0.0573
  FragIndex	| 1
  FragRMSD	| 0.244

