@<TRIPOS>MOLECULE
BindingDB_50293105
 28 30 0 0 0
SMALL
NO_CHARGES


@<TRIPOS>ATOM
1    C        14.1500   42.0871    9.3342  C     
2    C        14.0774   42.1547    7.9266  C     
3    C        13.7884   40.9988    7.1716  C     
4    C        13.9423   40.8618    9.9951  C     
5    C        13.6523   39.7177    9.2323  C     
6    C        13.5695   39.7783    7.8442  C     
7    N        13.2692   38.5848    7.3075  N     
8    C        13.1227   37.6163    8.1965  C     
9    S        13.3440   38.1329    9.8247  S     
10   C        12.8136   36.2945    7.8399  C     
11   C        12.9214   35.8385    6.4924  C     
12   C        12.6432   34.5057    6.1447  C     
13   C        12.2541   33.5761    7.1315  C     
14   C        12.1290   34.0092    8.4675  C     
15   C        12.3939   35.3410    8.8095  C     
16   O        11.9323   32.2811    6.8404  O     
17   C        12.9655   31.3406    7.1652  C     
18   H        14.3497   42.9318    9.8754  H     
19   H        14.2331   43.0469    7.4519  H     
20   H        13.7335   41.0492    6.1526  H     
21   H        13.9930   40.8060   11.0138  H     
22   H        13.1839   36.4879    5.7480  H     
23   H        12.7138   34.2015    5.1702  H     
24   H        11.8138   33.3499    9.1819  H     
25   H        12.2559   35.6035    9.7862  H     
26   H        13.7720   31.4196    6.4288  H     
27   H        12.5502   30.3328    7.1229  H     
28   H        13.3705   31.4907    8.1783  H     
@<TRIPOS>BOND
     1    1    2 2
     2    1    4 1
     3    2    3 1
     4    3    6 2
     5    4    5 2
     6    5    6 1
     7    5    9 1
     8    6    7 1
     9    7    8 2
    10    8    9 1
    11    8   10 1
    12   10   11 2
    13   10   15 1
    14   11   12 1
    15   12   13 2
    16   13   14 1
    17   13   16 1
    18   14   15 2
    19   16   17 1
    20    1   18 1
    21    2   19 1
    22    3   20 1
    23    4   21 1
    24   11   22 1
    25   12   23 1
    26   14   24 1
    27   15   25 1
    28   17   26 1
    29   17   27 1
    30   17   28 1
@<TRIPOS>PROPERTY_DATA
  Total_Score	| 3.0804
  Crash		| -2.1113
  Polar		| 0.1652
  FragIndex	| 1
  FragRMSD	| 0.737

