@<TRIPOS>MOLECULE
BindingDB_50293120
 36 38 0 0 0
SMALL
NO_CHARGES


@<TRIPOS>ATOM
1    C        14.3801   41.8005    9.7187  C     
2    C        14.2856   42.0743    8.3253  C     
3    C        13.8392   41.0875    7.4236  C     
4    C        14.1164   40.5027   10.1867  C     
5    C        13.7219   39.4913    9.2699  C     
6    C        13.5955   39.7970    7.9191  C     
7    N        13.2251   38.7337    7.2076  N     
8    C        13.0555   37.6329    7.9282  C     
9    S        13.4192   37.8205    9.5970  S     
10   C        12.6686   36.4557    7.3145  C     
11   C        11.3783   36.3984    6.7511  C     
12   C        11.0432   35.4366    5.7761  C     
13   C        12.0320   34.5282    5.3283  C     
14   C        13.2305   34.4267    6.0716  C     
15   C        13.5610   35.3988    7.0386  C     
16   O        14.9122   42.7503   10.5517  O     
17   C        14.1084   43.0098   11.7081  C     
18   O        11.8289   33.6208    4.3091  O     
19   C        11.3162   34.0925    3.0344  C     
20   O        14.1969   33.5194    5.7597  O     
21   C        13.6759   32.1666    5.6187  C     
22   H        14.5345   43.0098    7.9798  H     
23   H        13.7628   41.3019    6.4255  H     
24   H        14.2483   40.2774   11.1742  H     
25   H        10.6573   37.0495    7.0473  H     
26   H        10.1243   35.4308    5.3427  H     
27   H        14.4769   35.3727    7.4918  H     
28   H        13.0526   43.1805   11.4678  H     
29   H        14.4695   43.9279   12.1798  H     
30   H        14.1858   42.1787   12.4244  H     
31   H        10.2700   34.4409    3.1216  H     
32   H        11.3340   33.2399    2.3313  H     
33   H        11.9328   34.9071    2.6094  H     
34   H        13.2734   31.7777    6.5681  H     
35   H        14.5092   31.5351    5.2937  H     
36   H        12.8972   32.0704    4.8511  H     
@<TRIPOS>BOND
     1    1    2 2
     2    1    4 1
     3    1   16 1
     4    2    3 1
     5    3    6 2
     6    4    5 2
     7    5    6 1
     8    5    9 1
     9    6    7 1
    10    7    8 2
    11    8    9 1
    12    8   10 1
    13   10   11 2
    14   10   15 1
    15   11   12 1
    16   12   13 2
    17   13   14 1
    18   13   18 1
    19   14   15 2
    20   14   20 1
    21   16   17 1
    22   18   19 1
    23   20   21 1
    24    2   22 1
    25    3   23 1
    26    4   24 1
    27   11   25 1
    28   12   26 1
    29   15   27 1
    30   17   28 1
    31   17   29 1
    32   17   30 1
    33   19   31 1
    34   19   32 1
    35   19   33 1
    36   21   34 1
    37   21   35 1
    38   21   36 1
@<TRIPOS>PROPERTY_DATA
  Total_Score	| 3.9883
  Crash		| -6.0980
  Polar		| 1.1069
  FragIndex	| 1
  FragRMSD	| 0.929

