@<TRIPOS>MOLECULE
BindingDB_50129784
 36 38 0 0 0
SMALL
NO_CHARGES


@<TRIPOS>ATOM
1    C        14.2775   41.8238    9.7097  C     
2    C        14.2634   41.9709    8.3058  C     
3    C        13.9583   40.8761    7.4768  C     
4    C        13.8798   40.6103   10.3136  C     
5    C        13.4995   39.5428    9.4641  C     
6    C        13.5707   39.6693    8.0822  C     
7    N        13.2726   38.5174    7.4787  N     
8    C        12.9040   37.5532    8.3049  C     
9    S        12.9396   37.9899    9.9632  S     
10   C        12.7286   36.2446    7.8767  C     
11   C        12.7509   35.9147    6.4953  C     
12   C        12.8277   34.5737    6.0773  C     
13   C        12.8437   33.4771    7.0022  C     
14   C        12.6671   33.8225    8.3703  C     
15   C        12.6289   35.1640    8.8048  C     
16   O        14.5782   42.9275   10.4540  O     
17   C        15.2186   42.6415   11.7187  C     
18   N        13.0957   32.1745    6.5885  N     
19   C        13.6546   31.8858    5.2821  C     
20   C        12.9090   31.0400    7.4914  C     
21   H        14.4930   42.8709    7.8685  H     
22   H        14.0043   40.9611    6.4649  H     
23   H        13.8466   40.4930   11.3357  H     
24   H        12.7905   36.6637    5.7763  H     
25   H        12.9206   34.4190    5.0826  H     
26   H        12.6262   33.1029    9.1004  H     
27   H        12.5304   35.3365    9.8070  H     
28   H        14.5462   42.1470   12.4172  H     
29   H        15.5492   43.5797   12.1599  H     
30   H        16.1155   42.0231   11.5651  H     
31   H        13.0061   32.2689    4.4973  H     
32   H        13.7907   30.8256    5.0762  H     
33   H        14.6379   32.3280    5.1842  H     
34   H        13.4358   31.1901    8.4231  H     
35   H        13.2719   30.0994    7.0857  H     
36   H        11.8356   30.8802    7.6584  H     
@<TRIPOS>BOND
     1    1    2 2
     2    1    4 1
     3    1   16 1
     4    2    3 1
     5    3    6 2
     6    4    5 2
     7    5    6 1
     8    5    9 1
     9    6    7 1
    10    7    8 2
    11    8    9 1
    12    8   10 1
    13   10   11 2
    14   10   15 1
    15   11   12 1
    16   12   13 2
    17   13   14 1
    18   13   18 1
    19   14   15 2
    20   16   17 1
    21   18   19 1
    22   18   20 1
    23    2   21 1
    24    3   22 1
    25    4   23 1
    26   11   24 1
    27   12   25 1
    28   14   26 1
    29   15   27 1
    30   17   28 1
    31   17   29 1
    32   17   30 1
    33   19   31 1
    34   19   32 1
    35   19   33 1
    36   20   34 1
    37   20   35 1
    38   20   36 1
@<TRIPOS>PROPERTY_DATA
  Total_Score	| 4.5538
  Crash		| -3.5611
  Polar		| 0.0663
  FragIndex	| 1
  FragRMSD	| 0.581

