@<TRIPOS>MOLECULE
BindingDB_50293111
 28 30 0 0 0
SMALL
NO_CHARGES


@<TRIPOS>ATOM
1    C        14.1414   41.6722    9.7842  C     
2    C        14.2023   41.8763    8.3840  C     
3    C        13.9713   40.8137    7.4896  C     
4    C        13.8145   40.3929   10.2915  C     
5    C        13.6057   39.3142    9.3683  C     
6    C        13.6756   39.5427    8.0028  C     
7    N        13.4747   38.4192    7.3061  N     
8    C        13.2644   37.3505    8.0546  C     
9    S        13.2610   37.6692    9.7458  S     
10   C        13.0355   36.0958    7.4784  C     
11   C        12.5983   35.9906    6.1270  C     
12   C        12.3049   34.7459    5.5506  C     
13   C        12.4707   33.5621    6.2935  C     
14   C        12.9483   33.6326    7.6147  C     
15   C        13.2164   34.8809    8.2063  C     
16   O        14.3642   42.8064   10.5435  O     
17   C        15.0451   42.6321   11.8074  C     
18   F        13.1306   32.5309    8.2952  F     
19   H        14.4304   42.7940    7.9991  H     
20   H        14.0202   40.9498    6.4788  H     
21   H        13.7450   40.2225   11.2931  H     
22   H        12.4754   36.8204    5.5403  H     
23   H        11.9592   34.7083    4.5904  H     
24   H        12.2551   32.6607    5.8627  H     
25   H        13.5713   34.9016    9.1648  H     
26   H        14.3798   42.1713   12.5457  H     
27   H        15.3140   43.6297   12.2016  H     
28   H        15.9643   42.0483   11.6974  H     
@<TRIPOS>BOND
     1    1    2 2
     2    1    4 1
     3    1   16 1
     4    2    3 1
     5    3    6 2
     6    4    5 2
     7    5    6 1
     8    5    9 1
     9    6    7 1
    10    7    8 2
    11    8    9 1
    12    8   10 1
    13   10   11 2
    14   10   15 1
    15   11   12 1
    16   12   13 2
    17   13   14 1
    18   14   15 2
    19   14   18 1
    20   16   17 1
    21    2   19 1
    22    3   20 1
    23    4   21 1
    24   11   22 1
    25   12   23 1
    26   13   24 1
    27   15   25 1
    28   17   26 1
    29   17   27 1
    30   17   28 1
@<TRIPOS>PROPERTY_DATA
  Total_Score	| 5.6151
  Crash		| -0.7842
  Polar		| 0.0839
  FragIndex	| 1
  FragRMSD	| 0.149

