@<TRIPOS>MOLECULE
BindingDB_50293123
 28 30 0 0 0
SMALL
NO_CHARGES


@<TRIPOS>ATOM
1    C        14.1718   41.7848    9.7931  C     
2    C        14.2554   41.8811    8.3813  C     
3    C        13.9696   40.7744    7.5569  C     
4    C        13.7827   40.5494   10.3682  C     
5    C        13.4961   39.4460    9.5299  C     
6    C        13.5947   39.5582    8.1517  C     
7    N        13.3152   38.4027    7.5383  N     
8    C        12.9925   37.4192    8.3636  C     
9    S        12.9802   37.8768   10.0283  S     
10   C        12.8012   36.1017    7.9194  C     
11   C        12.2355   35.1070    8.7537  C     
12   C        12.1784   33.7515    8.3638  C     
13   C        12.6974   33.3580    7.1213  C     
14   C        13.1990   34.3300    6.2458  C     
15   C        13.2408   35.6867    6.6358  C     
16   O        14.4038   42.9498   10.4894  O     
17   C        14.9884   42.8901   11.7981  C     
18   Cl       12.7302   31.7135    6.7049  Cl    
19   H        14.5299   42.7632    7.9373  H     
20   H        14.0279   40.8401    6.5385  H     
21   H        13.7118   40.4201   11.3765  H     
22   H        11.8726   35.3365    9.6780  H     
23   H        11.8015   33.0557    9.0132  H     
24   H        13.5637   34.0524    5.3319  H     
25   H        13.6344   36.3589    5.9760  H     
26   H        14.2914   42.4796   12.5261  H     
27   H        15.2252   43.9152   12.1144  H     
28   H        15.9122   42.3089   11.8036  H     
@<TRIPOS>BOND
     1    1    2 2
     2    1    4 1
     3    1   16 1
     4    2    3 1
     5    3    6 2
     6    4    5 2
     7    5    6 1
     8    5    9 1
     9    6    7 1
    10    7    8 2
    11    8    9 1
    12    8   10 1
    13   10   11 2
    14   10   15 1
    15   11   12 1
    16   12   13 2
    17   13   14 1
    18   13   18 1
    19   14   15 2
    20   16   17 1
    21    2   19 1
    22    3   20 1
    23    4   21 1
    24   11   22 1
    25   12   23 1
    26   14   24 1
    27   15   25 1
    28   17   26 1
    29   17   27 1
    30   17   28 1
@<TRIPOS>PROPERTY_DATA
  Total_Score	| 3.9657
  Crash		| -2.3007
  Polar		| 0.0418
  FragIndex	| 1
  FragRMSD	| 0.676

