@<TRIPOS>MOLECULE
BindingDB_29810
 70 73 0 0 0
SMALL
NO_CHARGES


@<TRIPOS>ATOM
1    C        30.9964    0.0184   36.4288  C     
2    C        30.2798   -1.6186   34.7548  C     
3    C        30.5153   -0.2749   35.1254  C     
4    C        30.4036    0.7619   34.2123  C     
5    O        31.3100    1.5888   34.1763  O     
6    N        29.3283    0.9057   33.4502  N     
7    C        29.1090    1.9470   32.4680  C     
8    C        28.3889    3.1876   33.1190  C     
9    C        28.3400    1.3441   31.2467  C     
10   C        28.8024   -0.0231   30.8454  C     
11   C        28.4291   -2.4466   30.6938  C     
12   C        27.9697   -1.1525   31.0291  C     
13   C        30.1064   -0.2166   30.3348  C     
14   C        30.5756   -1.5129   30.0261  C     
15   C        29.7311   -2.6211   30.2052  C     
16   C        29.2397    3.8615   34.2398  C     
17   N        28.5615    4.8972   35.0422  N     
18   O        28.1186    4.1877   32.1265  O     
19   C        31.3025   -1.0117   37.3587  C     
20   C        31.3629   -3.2088   40.0260  C     
21   C        32.1164   -3.7050   38.7721  C     
22   C        31.0823   -2.3464   36.9443  C     
23   C        30.5428   -2.6328   35.6845  C     
24   C        30.9861   -4.4815   36.7504  C     
25   N        31.8097   -0.6864   38.5990  N     
26   S        31.1258   -1.4215   39.9626  S     
27   O        29.5675   -1.0840   40.0356  O     
28   O        31.7269   -0.8315   41.3149  O     
29   C        30.1198   -4.8814   34.4910  C     
30   C        28.9042   -4.4622   33.6255  C     
31   C        32.8678    0.2708   38.7910  C     
32   C        30.4777   -4.0000   35.6040  C     
33   N        31.3699   -3.5112   37.5585  N     
34   C        27.9785    6.0645   34.3564  C     
35   C        27.7537    7.1933   35.3849  C     
36   F        26.4763    7.6982   35.2910  F     
37   H        31.1621    1.0012   36.7136  H     
38   H        30.0235   -1.8443   33.8097  H     
39   H        28.6197    0.2532   33.5608  H     
40   H        30.0659    2.3054   32.0728  H     
41   H        27.4321    2.8586   33.5443  H     
42   H        27.2687    1.3367   31.4742  H     
43   H        28.4694    2.0002   30.3807  H     
44   H        27.8142   -3.2546   30.8240  H     
45   H        27.0266   -1.0478   31.4037  H     
46   H        30.7369    0.5790   30.2048  H     
47   H        31.5291   -1.6427   29.6858  H     
48   H        30.0720   -3.5601   29.9845  H     
49   H        29.5310    3.1077   34.9680  H     
50   H        30.1521    4.2712   33.8004  H     
51   H        27.8189    4.4505   35.5824  H     
52   H        29.2597    5.2552   35.6951  H     
53   H        27.2176    4.0086   31.7780  H     
54   H        30.3872   -3.6999   40.1016  H     
55   H        31.9415   -3.4603   40.9226  H     
56   H        33.0710   -3.1837   38.6836  H     
57   H        32.3481   -4.7644   38.9224  H     
58   H        31.1219   -5.4542   36.9373  H     
59   H        29.8659   -5.8775   34.8917  H     
60   H        31.0035   -5.0263   33.8518  H     
61   H        28.0702   -4.1534   34.2605  H     
62   H        28.5902   -5.3082   33.0138  H     
63   H        29.1586   -3.6693   32.9359  H     
64   H        33.2703    0.6403   37.8504  H     
65   H        33.6862   -0.1951   39.3398  H     
66   H        32.4901    1.1213   39.3590  H     
67   H        28.6499    6.4279   33.5739  H     
68   H        27.0215    5.7835   33.9060  H     
69   H        27.8959    6.8083   36.3977  H     
70   H        28.4686    8.0063   35.2236  H     
@<TRIPOS>BOND
     1    1    3 2
     2    1   19 1
     3    2    3 1
     4    2   23 2
     5    3    4 1
     6    4    5 2
     7    4    6 am
     8    6    7 1
     9    7    8 1
    10    7    9 1
    11    8   16 1
    12    8   18 1
    13    9   10 1
    14   10   12 1
    15   10   13 2
    16   11   12 2
    17   11   15 1
    18   13   14 1
    19   14   15 2
    20   16   17 1
    21   17   34 1
    22   19   22 2
    23   19   25 1
    24   20   21 1
    25   20   26 1
    26   21   33 1
    27   22   23 1
    28   22   33 1
    29   23   32 1
    30   24   32 2
    31   24   33 1
    32   25   26 1
    33   25   31 1
    34   26   27 2
    35   26   28 2
    36   29   30 1
    37   29   32 1
    38   34   35 1
    39   35   36 1
    40    1   37 1
    41    2   38 1
    42    6   39 1
    43    7   40 1
    44    8   41 1
    45    9   42 1
    46    9   43 1
    47   11   44 1
    48   12   45 1
    49   13   46 1
    50   14   47 1
    51   15   48 1
    52   16   49 1
    53   16   50 1
    54   17   51 1
    55   17   52 1
    56   18   53 1
    57   20   54 1
    58   20   55 1
    59   21   56 1
    60   21   57 1
    61   24   58 1
    62   29   59 1
    63   29   60 1
    64   30   61 1
    65   30   62 1
    66   30   63 1
    67   31   64 1
    68   31   65 1
    69   31   66 1
    70   34   67 1
    71   34   68 1
    72   35   69 1
    73   35   70 1
@<TRIPOS>PROPERTY_DATA
  Total_Score	| 15.7689
  Crash		| -1.3775
  Polar		| 7.0958
  FragIndex	| 1
  FragRMSD	| 0.580

