@<TRIPOS>MOLECULE
BindingDB_29793
 74 78 0 0 0
SMALL
NO_CHARGES


@<TRIPOS>ATOM
1    C        31.1529   -0.1216   36.5258  C     
2    C        30.2755   -1.6117   34.8148  C     
3    C        30.5979   -0.2973   35.2288  C     
4    C        30.4676    0.7837   34.3560  C     
5    O        31.3533    1.6309   34.3465  O     
6    N        29.4747    0.8500   33.4709  N     
7    C        29.3743    1.7414   32.3409  C     
8    C        28.8407    3.1668   32.7247  C     
9    C        28.5073    1.0704   31.2239  C     
10   C        28.9755   -0.2968   30.8631  C     
11   C        28.6391   -2.7252   30.8070  C     
12   C        28.1614   -1.4322   31.0963  C     
13   C        30.2683   -0.4899   30.3131  C     
14   C        30.7444   -1.7859   30.0240  C     
15   C        29.9329   -2.9031   30.2849  C     
16   C        27.5303    3.1463   33.5636  C     
17   N        26.8006    4.4374   33.6397  N     
18   O        29.8492    3.9061   33.4311  O     
19   C        27.6227    5.6678   33.6427  C     
20   C        27.4121    6.7215   34.7454  C     
21   C        28.6386    5.8017   34.7914  C     
22   C        31.3903   -1.2110   37.4048  C     
23   C        31.1176   -3.4823   39.9705  C     
24   C        31.8794   -4.0481   38.7474  C     
25   C        31.0790   -2.5126   36.9370  C     
26   C        30.5238   -2.7021   35.6708  C     
27   C        30.8186   -4.6363   36.6090  C     
28   C        30.3727   -4.0504   35.4911  C     
29   N        31.2519   -3.7371   37.4894  N     
30   N        31.9104   -0.9891   38.6575  N     
31   S        31.0971   -1.6798   39.9727  S     
32   O        29.5957   -1.1543   39.9851  O     
33   O        31.6660   -1.1797   41.3728  O     
34   C        29.9101   -4.7320   34.2901  C     
35   C        28.4287   -4.4395   33.9566  C     
36   C        33.1854   -0.3332   38.8370  C     
37   C        33.1026    0.9563   39.6863  C     
38   H        31.3822    0.8208   36.8492  H     
39   H        29.9178   -1.7919   33.8735  H     
40   H        28.7798    0.1762   33.5506  H     
41   H        30.3752    1.8881   31.9163  H     
42   H        28.6501    3.7296   31.8014  H     
43   H        27.4668    1.0464   31.5655  H     
44   H        28.5327    1.6947   30.3207  H     
45   H        28.0491   -3.5385   30.9877  H     
46   H        27.2230   -1.3244   31.4822  H     
47   H        30.8725    0.3103   30.1182  H     
48   H        31.6820   -1.9104   29.6350  H     
49   H        30.2838   -3.8438   30.0818  H     
50   H        26.8314    2.4173   33.1263  H     
51   H        27.7558    2.8068   34.5817  H     
52   H        26.1302    4.4661   32.8592  H     
53   H        26.2685    4.4100   34.5030  H     
54   H        29.9553    3.4376   34.2828  H     
55   H        27.9660    6.0612   32.6876  H     
56   H        27.6415    7.7590   34.4851  H     
57   H        26.6502    6.5211   35.4998  H     
58   H        28.6172    5.0559   35.5868  H     
59   H        29.5864    6.2972   34.5619  H     
60   H        30.0939   -3.8600   39.9694  H     
61   H        31.6007   -3.8260   40.8871  H     
62   H        32.9016   -3.6595   38.7400  H     
63   H        31.9576   -5.1326   38.8785  H     
64   H        30.8560   -5.6208   36.7456  H     
65   H        30.5354   -4.4251   33.4494  H     
66   H        30.0201   -5.8145   34.3979  H     
67   H        27.7780   -4.7861   34.7632  H     
68   H        28.1524   -4.9627   33.0391  H     
69   H        28.2611   -3.3721   33.8051  H     
70   H        33.8857   -1.0292   39.3029  H     
71   H        33.6203   -0.0584   37.8692  H     
72   H        32.2979    1.6014   39.3292  H     
73   H        34.0446    1.5042   39.6197  H     
74   H        32.9209    0.7167   40.7317  H     
@<TRIPOS>BOND
     1    1    3 2
     2    1   22 1
     3    2    3 1
     4    2   26 2
     5    3    4 1
     6    4    5 2
     7    4    6 am
     8    6    7 1
     9    7    8 1
    10    7    9 1
    11    8   16 1
    12    8   18 1
    13    9   10 1
    14   10   12 1
    15   10   13 2
    16   11   12 2
    17   11   15 1
    18   13   14 1
    19   14   15 2
    20   16   17 1
    21   17   19 1
    22   19   20 1
    23   19   21 1
    24   20   21 1
    25   22   25 2
    26   22   30 1
    27   23   24 1
    28   23   31 1
    29   24   29 1
    30   25   26 1
    31   25   29 1
    32   26   28 1
    33   27   28 2
    34   27   29 1
    35   28   34 1
    36   30   31 1
    37   30   36 1
    38   31   32 2
    39   31   33 2
    40   34   35 1
    41   36   37 1
    42    1   38 1
    43    2   39 1
    44    6   40 1
    45    7   41 1
    46    8   42 1
    47    9   43 1
    48    9   44 1
    49   11   45 1
    50   12   46 1
    51   13   47 1
    52   14   48 1
    53   15   49 1
    54   16   50 1
    55   16   51 1
    56   17   52 1
    57   17   53 1
    58   18   54 1
    59   19   55 1
    60   20   56 1
    61   20   57 1
    62   21   58 1
    63   21   59 1
    64   23   60 1
    65   23   61 1
    66   24   62 1
    67   24   63 1
    68   27   64 1
    69   34   65 1
    70   34   66 1
    71   35   67 1
    72   35   68 1
    73   35   69 1
    74   36   70 1
    75   36   71 1
    76   37   72 1
    77   37   73 1
    78   37   74 1
@<TRIPOS>PROPERTY_DATA
  Total_Score	| 17.1303
  Crash		| -2.4987
  Polar		| 8.2120
  FragIndex	| 1
  FragRMSD	| 0.122

