@<TRIPOS>MOLECULE
BindingDB_26503
 80 84 0 0 0
SMALL
NO_CHARGES


@<TRIPOS>ATOM
1    C        31.1376    0.0034   36.2354  C     
2    C        30.3273   -1.5802   34.5725  C     
3    C        30.5861   -0.2392   34.9482  C     
4    C        30.3298    0.8019   34.0571  C     
5    O        31.1486    1.7103   33.9587  O     
6    N        29.2053    0.8220   33.3407  N     
7    C        28.8454    1.7656   32.3055  C     
8    C        28.2677    0.9871   31.0585  C     
9    C        28.8733   -0.3498   30.7792  C     
10   C        28.7251   -2.8024   30.8294  C     
11   C        28.1543   -1.5417   31.0609  C     
12   C        30.1859   -0.4631   30.2566  C     
13   C        30.7498   -1.7298   30.0081  C     
14   C        30.0227   -2.9018   30.3024  C     
15   C        27.8349    2.8607   32.8176  C     
16   C        27.7919    3.2162   34.3422  C     
17   O        28.0581    4.0526   32.0486  O     
18   N        28.2666    4.5729   34.7194  N     
19   C        30.6130   -2.6209   35.4713  C     
20   C        30.9296   -4.5498   36.5099  C     
21   C        30.4704   -3.9988   35.3195  C     
22   C        31.1472   -2.3756   36.7379  C     
23   C        31.4081   -1.0483   37.1585  C     
24   C        31.1218   -3.2284   39.8160  C     
25   C        31.9310   -3.8204   38.6402  C     
26   N        31.8820   -0.7670   38.4191  N     
27   C        33.0237    0.0731   38.6481  C     
28   S        31.0912   -1.4232   39.7664  S     
29   O        29.5726   -0.9526   39.8124  O     
30   O        31.7146   -0.9049   41.1367  O     
31   N        31.3381   -3.5742   37.3529  N     
32   C        29.9582   -4.7393   34.1473  C     
33   C        28.4639   -4.4514   33.8830  C     
34   C        29.6731    4.7011   35.1584  C     
35   C        30.0211    6.1408   35.2551  C     
36   C        29.6051    6.9079   36.3701  C     
37   C        30.7198    6.7824   34.2094  C     
38   C        30.9843    8.1585   34.2675  C     
39   C        30.5454    8.9116   35.3679  C     
40   C        29.8499    8.3011   36.4410  C     
41   C        29.3916    9.1449   37.5796  C     
42   F        28.5495   10.1279   37.1184  F     
43   F        28.7115    8.4634   38.5608  F     
44   F        30.4641    9.7508   38.1903  F     
45   H        31.3066    0.9714   36.5285  H     
46   H        29.9708   -1.8051   33.6439  H     
47   H        28.5469    0.1401   33.5430  H     
48   H        29.7472    2.2909   31.9561  H     
49   H        27.1905    0.8391   31.1869  H     
50   H        28.3753    1.6116   30.1604  H     
51   H        28.1990   -3.6478   31.0622  H     
52   H        27.2133   -1.4995   31.4633  H     
53   H        30.7373    0.3775   30.0599  H     
54   H        31.6928   -1.8018   29.6266  H     
55   H        30.4329   -3.8195   30.1309  H     
56   H        26.8266    2.5183   32.5701  H     
57   H        26.7426    3.1922   34.6450  H     
58   H        28.2815    2.4667   34.9720  H     
59   H        27.2151    4.2113   31.5427  H     
60   H        28.1132    5.2132   33.9380  H     
61   H        27.6629    4.8784   35.4849  H     
62   H        30.9498   -5.5553   36.7076  H     
63   H        30.0991   -3.6059   39.7855  H     
64   H        31.5620   -3.5443   40.7654  H     
65   H        32.9453   -3.4120   38.6507  H     
66   H        32.0237   -4.8966   38.8196  H     
67   H        33.7693   -0.4675   39.2361  H     
68   H        32.7139    0.9628   39.1998  H     
69   H        33.5045    0.3925   37.7212  H     
70   H        30.5513   -4.4608   33.2753  H     
71   H        30.0793   -5.8137   34.3012  H     
72   H        27.8546   -4.8299   34.7086  H     
73   H        28.1531   -4.9471   32.9636  H     
74   H        28.2790   -3.3825   33.7737  H     
75   H        29.8078    4.2202   36.1361  H     
76   H        30.3195    4.1899   34.4412  H     
77   H        29.1066    6.4403   37.1298  H     
78   H        31.0286    6.2587   33.3894  H     
79   H        31.4891    8.6162   33.5031  H     
80   H        30.7333    9.9188   35.3809  H     
@<TRIPOS>BOND
     1    1    3 1
     2    1   23 2
     3    2    3 2
     4    2   19 1
     5    3    4 1
     6    4    5 2
     7    4    6 am
     8    6    7 1
     9    7    8 1
    10    7   15 1
    11    8    9 1
    12    9   11 2
    13    9   12 1
    14   10   11 1
    15   10   14 2
    16   12   13 2
    17   13   14 1
    18   15   16 1
    19   15   17 1
    20   16   18 1
    21   18   34 1
    22   19   21 1
    23   19   22 2
    24   20   21 2
    25   20   31 1
    26   21   32 1
    27   22   23 1
    28   22   31 1
    29   23   26 1
    30   24   25 1
    31   24   28 1
    32   25   31 1
    33   26   27 1
    34   26   28 1
    35   28   29 2
    36   28   30 2
    37   32   33 1
    38   34   35 1
    39   35   36 2
    40   35   37 1
    41   36   40 1
    42   37   38 2
    43   38   39 1
    44   39   40 2
    45   40   41 1
    46   41   42 1
    47   41   43 1
    48   41   44 1
    49    1   45 1
    50    2   46 1
    51    6   47 1
    52    7   48 1
    53    8   49 1
    54    8   50 1
    55   10   51 1
    56   11   52 1
    57   12   53 1
    58   13   54 1
    59   14   55 1
    60   15   56 1
    61   16   57 1
    62   16   58 1
    63   17   59 1
    64   18   60 1
    65   18   61 1
    66   20   62 1
    67   24   63 1
    68   24   64 1
    69   25   65 1
    70   25   66 1
    71   27   67 1
    72   27   68 1
    73   27   69 1
    74   32   70 1
    75   32   71 1
    76   33   72 1
    77   33   73 1
    78   33   74 1
    79   34   75 1
    80   34   76 1
    81   36   77 1
    82   37   78 1
    83   38   79 1
    84   39   80 1
@<TRIPOS>PROPERTY_DATA
  Total_Score	| 17.4612
  Crash		| -1.8167
  Polar		| 6.5687
  FragIndex	| 1
  FragRMSD	| 0.275

