@<TRIPOS>MOLECULE
BindingDB_26510
 71 75 0 0 0
SMALL
NO_CHARGES


@<TRIPOS>ATOM
1    C        31.1085   -0.0103   36.5178  C     
2    C        30.2025   -1.5306   34.8509  C     
3    C        30.5337   -0.2213   35.2392  C     
4    C        30.3691    0.8275   34.3456  C     
5    O        31.2799    1.6432   34.2386  O     
6    N        29.2526    0.9358   33.6357  N     
7    C        28.9872    1.8894   32.5854  C     
8    C        28.0971    1.2068   31.5023  C     
9    C        28.6142   -0.1135   31.0302  C     
10   C        30.4175   -1.4711   30.0591  C     
11   C        29.8908   -0.2171   30.4194  C     
12   C        27.8717   -1.3090   31.2356  C     
13   C        28.4003   -2.5611   30.8674  C     
14   C        29.6759   -2.6451   30.2812  C     
15   C        28.3491    3.2038   33.1609  C     
16   C        29.2350    3.8775   34.2527  C     
17   O        28.1466    4.1642   32.1187  O     
18   N        28.5407    4.8599   35.1174  N     
19   C        30.5037   -2.6037   35.6990  C     
20   C        30.8711   -4.5683   36.6624  C     
21   C        30.3989   -3.9763   35.4907  C     
22   C        31.0680   -2.4004   36.9645  C     
23   C        31.3714   -1.0850   37.4054  C     
24   C        31.3249   -3.3286   40.0378  C     
25   C        31.9943   -3.8854   38.7598  C     
26   N        31.9003   -0.8376   38.6487  N     
27   C        33.0674   -0.0215   38.8502  C     
28   S        31.1460   -1.5315   39.9952  S     
29   O        29.6089   -1.1218   40.0027  O     
30   O        31.7085   -0.9284   41.3586  O     
31   N        31.2864   -3.6135   37.5316  N     
32   C        30.0217   -4.6706   34.2405  C     
33   C        28.5439   -4.4531   33.8547  C     
34   C        27.9637    6.0930   34.5236  C     
35   C        27.7783    7.2756   35.5030  C     
36   C        28.7355    7.4156   34.3036  C     
37   H        31.3171    0.9451   36.8262  H     
38   H        29.7922   -1.7073   33.9307  H     
39   H        28.5716    0.2641   33.7956  H     
40   H        29.9216    2.1675   32.0920  H     
41   H        27.0862    1.0902   31.9022  H     
42   H        28.0191    1.8578   30.6273  H     
43   H        31.3493   -1.5339   29.6356  H     
44   H        30.4437    0.6225   30.2368  H     
45   H        26.9516   -1.2744   31.6722  H     
46   H        27.8614   -3.4143   31.0356  H     
47   H        30.0676   -3.5541   30.0278  H     
48   H        27.3662    2.9764   33.6120  H     
49   H        29.6029    3.1080   34.9417  H     
50   H        30.0995    4.3521   33.7515  H     
51   H        27.2791    3.9246   31.6971  H     
52   H        27.7982    4.3744   35.6313  H     
53   H        29.2274    5.1807   35.8093  H     
54   H        30.9641   -5.5813   36.7983  H     
55   H        30.3427   -3.7828   40.1788  H     
56   H        31.9465   -3.5845   40.8984  H     
57   H        33.0000   -3.4616   38.6714  H     
58   H        32.1202   -4.9649   38.8991  H     
59   H        33.8252   -0.5917   39.3918  H     
60   H        32.8051    0.8612   39.4352  H     
61   H        33.5111    0.3081   37.9129  H     
62   H        30.6347   -4.3291   33.4045  H     
63   H        30.1941   -5.7465   34.3525  H     
64   H        28.2677   -3.3974   33.9284  H     
65   H        27.9001   -5.0456   34.5071  H     
66   H        28.3884   -4.7815   32.8250  H     
67   H        27.0734    5.9596   33.9030  H     
68   H        26.8504    7.8425   35.4188  H     
69   H        28.2631    7.2228   36.4823  H     
70   H        29.8027    7.4467   34.5879  H     
71   H        28.3538    8.0554   33.4848  H     
@<TRIPOS>BOND
     1    1    3 1
     2    1   23 2
     3    2    3 2
     4    2   19 1
     5    3    4 1
     6    4    5 2
     7    4    6 am
     8    6    7 1
     9    7    8 1
    10    7   15 1
    11    8    9 1
    12    9   11 2
    13    9   12 1
    14   10   11 1
    15   10   14 2
    16   12   13 2
    17   13   14 1
    18   15   16 1
    19   15   17 1
    20   16   18 1
    21   18   34 1
    22   19   21 1
    23   19   22 2
    24   20   21 2
    25   20   31 1
    26   21   32 1
    27   22   23 1
    28   22   31 1
    29   23   26 1
    30   24   25 1
    31   24   28 1
    32   25   31 1
    33   26   27 1
    34   26   28 1
    35   28   29 2
    36   28   30 2
    37   32   33 1
    38   34   35 1
    39   34   36 1
    40   35   36 1
    41    1   37 1
    42    2   38 1
    43    6   39 1
    44    7   40 1
    45    8   41 1
    46    8   42 1
    47   10   43 1
    48   11   44 1
    49   12   45 1
    50   13   46 1
    51   14   47 1
    52   15   48 1
    53   16   49 1
    54   16   50 1
    55   17   51 1
    56   18   52 1
    57   18   53 1
    58   20   54 1
    59   24   55 1
    60   24   56 1
    61   25   57 1
    62   25   58 1
    63   27   59 1
    64   27   60 1
    65   27   61 1
    66   32   62 1
    67   32   63 1
    68   33   64 1
    69   33   65 1
    70   33   66 1
    71   34   67 1
    72   35   68 1
    73   35   69 1
    74   36   70 1
    75   36   71 1
@<TRIPOS>PROPERTY_DATA
  Total_Score	| 16.2701
  Crash		| -0.7800
  Polar		| 7.0081
  FragIndex	| 1
  FragRMSD	| 0.369

