@<TRIPOS>MOLECULE
BindingDB_29792
 83 87 0 0 0
SMALL
NO_CHARGES


@<TRIPOS>ATOM
1    C        30.3333    0.8936   34.4406  C     
2    O        31.2370    1.7130   34.3160  O     
3    N        29.2033    1.0254   33.7449  N     
4    C        28.9422    1.9745   32.6916  C     
5    C        28.2490    3.2535   33.2828  C     
6    C        28.0891    1.2859   31.5712  C     
7    C        28.6108   -0.0297   31.1277  C     
8    C        30.4249   -1.3912   30.1825  C     
9    C        29.9193   -0.1444   30.5859  C     
10   C        27.8314   -1.2064   31.2673  C     
11   C        28.3394   -2.4570   30.8607  C     
12   C        29.6389   -2.5494   30.3312  C     
13   C        29.0682    3.9943   34.3798  C     
14   N        28.4332    5.2944   34.7133  N     
15   O        27.9842    4.2114   32.2282  O     
16   C        30.5424   -0.1869   35.2884  C     
17   C        31.1493   -0.0133   36.5592  C     
18   C        30.2265   -1.4893   34.8503  C     
19   C        31.4241   -1.1223   37.4038  C     
20   C        31.2150   -3.4113   39.9543  C     
21   C        31.9651   -3.9573   38.7210  C     
22   C        31.1234   -2.4220   36.9245  C     
23   C        30.5302   -2.5830   35.6717  C     
24   C        30.8812   -4.5682   36.5853  C     
25   C        30.3731   -3.9434   35.4441  C     
26   N        31.9603   -0.9269   38.6542  N     
27   N        31.3246   -3.6433   37.4739  N     
28   S        31.1287   -1.6054   39.9693  S     
29   O        31.6654   -1.1064   41.3772  O     
30   O        29.6086   -1.1241   39.9155  O     
31   C        29.8293   -4.6057   34.2417  C     
32   C        28.3130   -4.3612   34.0734  C     
33   C        29.2179    6.2799   35.5173  C     
34   C        29.5505    8.4221   37.6285  C     
35   C        29.4776    8.7635   36.1263  C     
36   C        28.6596    7.7186   35.3208  C     
37   C        29.2547    5.9284   37.0316  C     
38   C        30.0552    6.9807   37.8549  C     
39   C        33.2464   -0.2976   38.8376  C     
40   C        33.1501    0.9674   39.7217  C     
41   H        28.4892    0.3990   33.9381  H     
42   H        29.8898    2.3020   32.2310  H     
43   H        27.2674    2.9520   33.6962  H     
44   H        27.0636    1.2001   31.9237  H     
45   H        28.0802    1.9184   30.6879  H     
46   H        31.3704   -1.4575   29.8075  H     
47   H        30.5042    0.6893   30.4666  H     
48   H        26.8820   -1.1603   31.6522  H     
49   H        27.7698   -3.2955   30.9675  H     
50   H        30.0097   -3.4555   30.0451  H     
51   H        29.1093    3.3973   35.2793  H     
52   H        30.0608    4.1538   34.0046  H     
53   H        28.1949    5.7664   33.8344  H     
54   H        27.5351    5.1159   35.1899  H     
55   H        27.1773    3.8864   31.7332  H     
56   H        31.3744    0.9321   36.8920  H     
57   H        29.8189   -1.6474   33.9317  H     
58   H        30.1966   -3.8182   39.9928  H     
59   H        31.7425   -3.7281   40.8577  H     
60   H        32.9757   -3.5553   38.7079  H     
61   H        32.0490   -5.0349   38.8439  H     
62   H        30.9204   -5.5948   36.7255  H     
63   H        30.3595   -4.2203   33.3681  H     
64   H        29.9950   -5.6756   34.2902  H     
65   H        27.7605   -4.8175   34.8936  H     
66   H        27.9702   -4.7987   33.1356  H     
67   H        28.0776   -3.2879   34.0508  H     
68   H        30.2587    6.2726   35.1386  H     
69   H        30.2292    9.1233   38.1184  H     
70   H        28.5588    8.5531   38.0859  H     
71   H        29.0125    9.7510   35.9937  H     
72   H        30.4847    8.8094   35.7144  H     
73   H        28.6909    7.9730   34.2504  H     
74   H        27.6115    7.7480   35.6345  H     
75   H        28.2297    5.8629   37.4247  H     
76   H        29.7123    4.9343   37.1732  H     
77   H        31.1031    6.9236   37.5704  H     
78   H        29.9764    6.7373   38.9168  H     
79   H        33.9426   -1.0006   39.3051  H     
80   H        33.6873   -0.0249   37.8708  H     
81   H        32.2972    1.5774   39.4144  H     
82   H        34.0666    1.5647   39.6187  H     
83   H        33.0259    0.6758   40.7706  H     
@<TRIPOS>BOND
     1    1    2 2
     2    1    3 am
     3    1   16 1
     4    3    4 1
     5    4    5 1
     6    4    6 1
     7    5   13 1
     8    5   15 1
     9    6    7 1
    10    7    9 2
    11    7   10 1
    12    8    9 1
    13    8   12 2
    14   10   11 2
    15   11   12 1
    16   13   14 1
    17   14   33 1
    18   16   17 1
    19   16   18 2
    20   17   19 2
    21   18   23 1
    22   19   22 1
    23   19   26 1
    24   20   21 1
    25   20   28 1
    26   21   27 1
    27   22   23 2
    28   22   27 1
    29   23   25 1
    30   24   25 2
    31   24   27 1
    32   25   31 1
    33   26   28 1
    34   26   39 1
    35   28   29 2
    36   28   30 2
    37   31   32 1
    38   33   36 1
    39   33   37 1
    40   34   35 1
    41   34   38 1
    42   35   36 1
    43   37   38 1
    44   39   40 1
    45    3   41 1
    46    4   42 1
    47    5   43 1
    48    6   44 1
    49    6   45 1
    50    8   46 1
    51    9   47 1
    52   10   48 1
    53   11   49 1
    54   12   50 1
    55   13   51 1
    56   13   52 1
    57   14   53 1
    58   14   54 1
    59   15   55 1
    60   17   56 1
    61   18   57 1
    62   20   58 1
    63   20   59 1
    64   21   60 1
    65   21   61 1
    66   24   62 1
    67   31   63 1
    68   31   64 1
    69   32   65 1
    70   32   66 1
    71   32   67 1
    72   33   68 1
    73   34   69 1
    74   34   70 1
    75   35   71 1
    76   35   72 1
    77   36   73 1
    78   36   74 1
    79   37   75 1
    80   37   76 1
    81   38   77 1
    82   38   78 1
    83   39   79 1
    84   39   80 1
    85   40   81 1
    86   40   82 1
    87   40   83 1
@<TRIPOS>PROPERTY_DATA
  Total_Score	| 17.7135
  Crash		| -1.3532
  Polar		| 6.9045
  FragIndex	| 1
  FragRMSD	| 0.624

