@<TRIPOS>MOLECULE
BindingDB_29801
 69 72 0 0 0
SMALL
NO_CHARGES


@<TRIPOS>ATOM
1    C        31.0788    0.0134   36.4370  C     
2    C        30.2050   -1.5418   34.7706  C     
3    C        30.5026   -0.2126   35.1595  C     
4    C        30.3229    0.8390   34.2653  C     
5    O        31.1815    1.7100   34.2152  O     
6    N        29.2231    0.9433   33.5252  N     
7    C        28.9770    1.8957   32.4684  C     
8    C        28.2847    3.1863   33.0339  C     
9    C        28.1559    1.2243   31.3170  C     
10   C        28.6635   -0.1156   30.9238  C     
11   C        30.4650   -1.5409   30.0735  C     
12   C        29.9483   -0.2611   30.3474  C     
13   C        27.8807   -1.2734   31.1395  C     
14   C        28.4015   -2.5506   30.8590  C     
15   C        29.6987   -2.6867   30.3379  C     
16   C        29.0693    3.8239   34.2336  C     
17   N        28.4704    5.1108   34.7183  N     
18   O        28.1847    4.1751   32.0045  O     
19   C        31.3513   -1.0462   37.3422  C     
20   C        31.2553   -3.3029   39.9581  C     
21   C        31.9632   -3.8586   38.7090  C     
22   C        31.0505   -2.3665   36.9092  C     
23   C        30.4793   -2.6043   35.6543  C     
24   C        30.8523   -4.5017   36.6135  C     
25   N        31.8711   -0.7865   38.5864  N     
26   S        31.1458   -1.5014   39.9353  S     
27   O        29.6172   -1.0633   39.9881  O     
28   O        31.7215   -0.9286   41.3074  O     
29   C        29.9133   -4.6613   34.3022  C     
30   C        28.4114   -4.4697   33.9754  C     
31   C        33.0140    0.0650   38.7792  C     
32   C        29.3096    5.8112   35.7387  C     
33   C        30.3569   -3.9569   35.4987  C     
34   N        31.2703   -3.5763   37.4753  N     
35   C        28.8213    7.0590   36.0072  C     
36   C        28.4025    8.1560   36.2949  C     
37   H        31.2812    0.9804   36.7277  H     
38   H        29.8431   -1.7337   33.8294  H     
39   H        28.5267    0.2826   33.6820  H     
40   H        29.9232    2.2250   32.0371  H     
41   H        27.2711    2.9507   33.3920  H     
42   H        27.1118    1.1730   31.6388  H     
43   H        28.1874    1.8771   30.4406  H     
44   H        31.4081   -1.6388   29.6823  H     
45   H        30.5212    0.5603   30.1379  H     
46   H        26.9380   -1.2008   31.5300  H     
47   H        27.8250   -3.3787   31.0242  H     
48   H        30.0814   -3.6133   30.1519  H     
49   H        29.0554    3.1258   35.0851  H     
50   H        30.1274    3.9829   33.9284  H     
51   H        28.3381    5.7591   33.9196  H     
52   H        27.5568    4.9043   35.1760  H     
53   H        27.2811    4.0719   31.6267  H     
54   H        30.2525   -3.7158   40.0323  H     
55   H        31.8043   -3.6022   40.8506  H     
56   H        32.9717   -3.4455   38.6487  H     
57   H        32.0758   -4.9366   38.8484  H     
58   H        30.9492   -5.4786   36.7437  H     
59   H        30.0984   -5.7365   34.4140  H     
60   H        30.5133   -4.3187   33.4515  H     
61   H        27.7898   -4.8845   34.7768  H     
62   H        28.1845   -4.9919   33.0366  H     
63   H        28.1712   -3.4136   33.8467  H     
64   H        33.4687    0.3791   37.8382  H     
65   H        33.7797   -0.4649   39.3545  H     
66   H        32.7179    0.9610   39.3335  H     
67   H        29.3268    5.2563   36.6937  H     
68   H        30.3405    5.9266   35.3817  H     
69   H        28.0779    8.9965   36.5195  H     
@<TRIPOS>BOND
     1    1    3 2
     2    1   19 1
     3    2    3 1
     4    2   23 2
     5    3    4 1
     6    4    5 2
     7    4    6 am
     8    6    7 1
     9    7    8 1
    10    7    9 1
    11    8   16 1
    12    8   18 1
    13    9   10 1
    14   10   12 1
    15   10   13 2
    16   11   12 2
    17   11   15 1
    18   13   14 1
    19   14   15 2
    20   16   17 1
    21   17   32 1
    22   19   22 2
    23   19   25 1
    24   20   21 1
    25   20   26 1
    26   21   34 1
    27   22   23 1
    28   22   34 1
    29   23   33 1
    30   24   33 2
    31   24   34 1
    32   25   26 1
    33   25   31 1
    34   26   27 2
    35   26   28 2
    36   29   30 1
    37   29   33 1
    38   32   35 1
    39   35   36 3
    40    1   37 1
    41    2   38 1
    42    6   39 1
    43    7   40 1
    44    8   41 1
    45    9   42 1
    46    9   43 1
    47   11   44 1
    48   12   45 1
    49   13   46 1
    50   14   47 1
    51   15   48 1
    52   16   49 1
    53   16   50 1
    54   17   51 1
    55   17   52 1
    56   18   53 1
    57   20   54 1
    58   20   55 1
    59   21   56 1
    60   21   57 1
    61   24   58 1
    62   29   59 1
    63   29   60 1
    64   30   61 1
    65   30   62 1
    66   30   63 1
    67   31   64 1
    68   31   65 1
    69   31   66 1
    70   32   67 1
    71   32   68 1
    72   36   69 1
@<TRIPOS>PROPERTY_DATA
  Total_Score	| 15.8703
  Crash		| -0.6544
  Polar		| 7.1117
  FragIndex	| 1
  FragRMSD	| 0.160

