@<TRIPOS>MOLECULE
BindingDB_29775
 78 82 0 0 0
SMALL
NO_CHARGES


@<TRIPOS>ATOM
1    C        31.0180   -0.0401   36.3499  C     
2    C        30.1216   -1.6232   34.7284  C     
3    C        30.4430   -0.2915   35.0717  C     
4    C        30.2939    0.7362   34.1510  C     
5    O        31.2092    1.5513   34.0665  O     
6    N        29.2091    0.8631   33.3877  N     
7    C        28.9812    1.8616   32.3599  C     
8    C        28.1015    3.0584   32.8708  C     
9    C        28.3568    1.1680   31.1054  C     
10   C        28.9214   -0.1803   30.8112  C     
11   C        28.6884   -2.6231   30.7947  C     
12   C        28.1387   -1.3487   30.9978  C     
13   C        30.2567   -0.3299   30.3682  C     
14   C        30.8051   -1.6103   30.1512  C     
15   C        30.0209   -2.7572   30.3542  C     
16   C        28.4656    3.5175   34.3169  C     
17   N        28.3246    4.9957   34.5308  N     
18   O        28.2532    4.1543   31.9689  O     
19   C        31.3089   -1.0820   37.2693  C     
20   C        31.3237   -3.3071   39.9239  C     
21   C        32.0161   -3.8494   38.6526  C     
22   C        31.0243   -2.4103   36.8598  C     
23   C        30.4350   -2.6688   35.6182  C     
24   C        30.8435   -4.5552   36.6101  C     
25   C        30.3427   -4.0311   35.4883  C     
26   N        31.2756   -3.6087   37.4355  N     
27   N        31.8209   -0.7897   38.5167  N     
28   C        32.8981    0.1381   38.7270  C     
29   S        31.1037   -1.5155   39.8684  S     
30   O        29.5550   -1.1652   39.8953  O     
31   O        31.6316   -0.8992   41.2397  O     
32   C        29.8912   -4.7709   34.3131  C     
33   C        28.4141   -4.4930   33.9420  C     
34   C        29.4815    5.6558   35.2088  C     
35   C        29.5500    7.8368   33.8555  C     
36   C        30.2925    6.5254   34.2025  C     
37   C        29.0086    6.5202   36.4181  C     
38   C        28.3825    7.8714   35.9764  C     
39   O        29.2372    8.5705   35.0522  O     
40   H        31.2310    0.9261   36.6152  H     
41   H        29.7398   -1.8339   33.8072  H     
42   H        28.4922    0.2305   33.5505  H     
43   H        29.9452    2.2786   32.0471  H     
44   H        27.0468    2.7550   32.8893  H     
45   H        27.2764    1.1008   31.2470  H     
46   H        28.5153    1.8018   30.2315  H     
47   H        28.1203   -3.4628   30.9444  H     
48   H        27.1651   -1.2845   31.3187  H     
49   H        30.8397    0.4950   30.2116  H     
50   H        31.7725   -1.7031   29.8358  H     
51   H        30.4184   -3.6828   30.1881  H     
52   H        27.7670    3.0246   35.0204  H     
53   H        29.4878    3.1600   34.5810  H     
54   H        28.2008    5.4392   33.6151  H     
55   H        27.4843    5.1474   35.1141  H     
56   H        27.3786    4.2366   31.5121  H     
57   H        30.3494   -3.7814   40.0444  H     
58   H        31.9299   -3.5498   40.8001  H     
59   H        33.0090   -3.3961   38.5590  H     
60   H        32.1743   -4.9252   38.8024  H     
61   H        30.9388   -5.5293   36.7719  H     
62   H        33.3340    0.4914   37.7906  H     
63   H        33.6935   -0.3384   39.3010  H     
64   H        32.5287    1.0016   39.2813  H     
65   H        30.5384   -4.5079   33.4710  H     
66   H        29.9985   -5.8505   34.4802  H     
67   H        27.7513   -4.8188   34.7559  H     
68   H        28.1629   -5.0388   33.0239  H     
69   H        28.2479   -3.4291   33.7635  H     
70   H        30.1788    4.9110   35.6340  H     
71   H        30.1883    8.4594   33.2315  H     
72   H        28.6377    7.6204   33.2918  H     
73   H        31.2667    6.7786   34.6442  H     
74   H        30.4855    5.9596   33.2874  H     
75   H        28.2846    5.9619   37.0219  H     
76   H        29.8780    6.7413   37.0535  H     
77   H        27.3872    7.7169   35.5432  H     
78   H        28.2637    8.5055   36.8622  H     
@<TRIPOS>BOND
     1    1    3 2
     2    1   19 1
     3    2    3 1
     4    2   23 2
     5    3    4 1
     6    4    5 2
     7    4    6 am
     8    6    7 1
     9    7    8 1
    10    7    9 1
    11    8   16 1
    12    8   18 1
    13    9   10 1
    14   10   12 1
    15   10   13 2
    16   11   12 2
    17   11   15 1
    18   13   14 1
    19   14   15 2
    20   16   17 1
    21   17   34 1
    22   19   22 2
    23   19   27 1
    24   20   21 1
    25   20   29 1
    26   21   26 1
    27   22   23 1
    28   22   26 1
    29   23   25 1
    30   24   25 2
    31   24   26 1
    32   25   32 1
    33   27   28 1
    34   27   29 1
    35   29   30 2
    36   29   31 2
    37   32   33 1
    38   34   36 1
    39   34   37 1
    40   35   36 1
    41   35   39 1
    42   37   38 1
    43   38   39 1
    44    1   40 1
    45    2   41 1
    46    6   42 1
    47    7   43 1
    48    8   44 1
    49    9   45 1
    50    9   46 1
    51   11   47 1
    52   12   48 1
    53   13   49 1
    54   14   50 1
    55   15   51 1
    56   16   52 1
    57   16   53 1
    58   17   54 1
    59   17   55 1
    60   18   56 1
    61   20   57 1
    62   20   58 1
    63   21   59 1
    64   21   60 1
    65   24   61 1
    66   28   62 1
    67   28   63 1
    68   28   64 1
    69   32   65 1
    70   32   66 1
    71   33   67 1
    72   33   68 1
    73   33   69 1
    74   34   70 1
    75   35   71 1
    76   35   72 1
    77   36   73 1
    78   36   74 1
    79   37   75 1
    80   37   76 1
    81   38   77 1
    82   38   78 1
@<TRIPOS>PROPERTY_DATA
  Total_Score	| 16.8180
  Crash		| -1.5168
  Polar		| 7.0058
  FragIndex	| 1
  FragRMSD	| 0.218

