@<TRIPOS>MOLECULE
BindingDB_26512
 67 70 0 0 0
SMALL
NO_CHARGES


@<TRIPOS>ATOM
1    C        31.2330   -0.0604   36.5186  C     
2    C        30.4006   -1.5920   34.8223  C     
3    C        30.6838   -0.2671   35.2291  C     
4    C        30.5002    0.8084   34.3456  C     
5    O        31.3639    1.6752   34.3049  O     
6    N        29.4758    0.8485   33.4947  N     
7    C        29.3327    1.7245   32.3569  C     
8    C        28.4560    1.0558   31.2483  C     
9    C        28.9160   -0.3042   30.8704  C     
10   C        28.5615   -2.7194   30.7998  C     
11   C        28.0938   -1.4344   31.1091  C     
12   C        30.1933   -0.4879   30.3007  C     
13   C        30.6544   -1.7802   29.9934  C     
14   C        29.8474   -2.8957   30.2538  C     
15   C        28.7781    3.1465   32.7472  C     
16   C        27.4690    3.1275   33.5928  C     
17   O        29.8005    3.8648   33.4438  O     
18   N        26.7695    4.4307   33.7189  N     
19   C        30.6543   -2.6693   35.7036  C     
20   C        30.9142   -4.6137   36.7358  C     
21   C        30.4890   -4.0386   35.5407  C     
22   C        31.1833   -2.4509   36.9796  C     
23   C        31.4790   -1.1397   37.4196  C     
24   C        31.1469   -3.3276   40.0629  C     
25   C        31.9259   -3.9346   38.8761  C     
26   N        31.9557   -0.8881   38.6768  N     
27   C        33.1195   -0.0841   38.9203  C     
28   S        31.1110   -1.5261   39.9996  S     
29   O        29.5966   -1.0376   39.9636  O     
30   O        31.6868   -0.9734   41.3760  O     
31   N        31.3409   -3.6570   37.5894  N     
32   C        29.9990   -4.7831   34.3577  C     
33   C        28.5257   -4.4599   34.0309  C     
34   C        27.5976    5.6459   33.8622  C     
35   H        31.4369    0.8893   36.8348  H     
36   H        30.0462   -1.7897   33.8851  H     
37   H        28.7830    0.1809   33.6136  H     
38   H        30.3166    1.8932   31.9171  H     
39   H        27.4107    0.9946   31.5883  H     
40   H        28.4587    1.6942   30.3566  H     
41   H        27.9639   -3.5261   30.9852  H     
42   H        27.1593   -1.3267   31.5146  H     
43   H        30.8011    0.3170   30.1126  H     
44   H        31.5814   -1.9023   29.5928  H     
45   H        30.1849   -3.8326   30.0400  H     
46   H        28.6068    3.6778   31.8104  H     
47   H        26.7235    2.4725   33.1223  H     
48   H        27.6717    2.7185   34.5872  H     
49   H        29.8719    3.4200   34.3216  H     
50   H        26.0926    4.5112   32.9422  H     
51   H        26.2222    4.3429   34.5753  H     
52   H        30.9230   -5.6189   36.9238  H     
53   H        30.1254   -3.7068   40.0665  H     
54   H        31.6208   -3.6298   40.9961  H     
55   H        32.9523   -3.5603   38.8833  H     
56   H        31.9830   -5.0142   39.0456  H     
57   H        33.8367   -0.6464   39.5218  H     
58   H        32.8346    0.8217   39.4611  H     
59   H        33.6228    0.2103   37.9960  H     
60   H        30.6345   -4.5394   33.5030  H     
61   H        30.0799   -5.8612   34.5322  H     
62   H        27.8795   -4.7833   34.8496  H     
63   H        28.2321   -4.9851   33.1206  H     
64   H        28.3828   -3.3923   33.8706  H     
65   H        28.3823    5.4932   34.6148  H     
66   H        26.9499    6.4784   34.2145  H     
67   H        28.0120    5.9486   32.9014  H     
@<TRIPOS>BOND
     1    1    3 1
     2    1   23 2
     3    2    3 2
     4    2   19 1
     5    3    4 1
     6    4    5 2
     7    4    6 am
     8    6    7 1
     9    7    8 1
    10    7   15 1
    11    8    9 1
    12    9   11 2
    13    9   12 1
    14   10   11 1
    15   10   14 2
    16   12   13 2
    17   13   14 1
    18   15   16 1
    19   15   17 1
    20   16   18 1
    21   18   34 1
    22   19   21 1
    23   19   22 2
    24   20   21 2
    25   20   31 1
    26   21   32 1
    27   22   23 1
    28   22   31 1
    29   23   26 1
    30   24   25 1
    31   24   28 1
    32   25   31 1
    33   26   27 1
    34   26   28 1
    35   28   29 2
    36   28   30 2
    37   32   33 1
    38    1   35 1
    39    2   36 1
    40    6   37 1
    41    7   38 1
    42    8   39 1
    43    8   40 1
    44   10   41 1
    45   11   42 1
    46   12   43 1
    47   13   44 1
    48   14   45 1
    49   15   46 1
    50   16   47 1
    51   16   48 1
    52   17   49 1
    53   18   50 1
    54   18   51 1
    55   20   52 1
    56   24   53 1
    57   24   54 1
    58   25   55 1
    59   25   56 1
    60   27   57 1
    61   27   58 1
    62   27   59 1
    63   32   60 1
    64   32   61 1
    65   33   62 1
    66   33   63 1
    67   33   64 1
    68   34   65 1
    69   34   66 1
    70   34   67 1
@<TRIPOS>PROPERTY_DATA
  Total_Score	| 15.5730
  Crash		| -2.0094
  Polar		| 7.8802
  FragIndex	| 1
  FragRMSD	| 0.782

