@<TRIPOS>MOLECULE
BindingDB_26504
 77 81 0 0 0
SMALL
NO_CHARGES


@<TRIPOS>ATOM
1    C        31.0828    0.1749   36.4665  C     
2    C        30.1792   -1.3786   34.8297  C     
3    C        30.4970   -0.0515   35.1919  C     
4    C        30.3222    0.9847   34.2735  C     
5    O        31.1695    1.8668   34.2488  O     
6    N        29.3059    0.9976   33.4239  N     
7    C        29.1052    1.9349   32.3459  C     
8    C        28.3734    1.2514   31.1405  C     
9    C        28.8737   -0.1079   30.7936  C     
10   C        30.7001   -1.5863   30.0778  C     
11   C        30.2033   -0.2906   30.3348  C     
12   C        28.0575   -1.2529   30.9815  C     
13   C        28.5558   -2.5452   30.7299  C     
14   C        29.8821   -2.7138   30.2802  C     
15   C        28.3300    3.1887   32.8327  C     
16   C        28.9932    3.9622   34.0178  C     
17   O        28.0913    4.0720   31.7388  O     
18   N        28.0498    4.9881   34.5190  N     
19   C        30.4986   -2.4302   35.7028  C     
20   C        30.9058   -4.3761   36.6825  C     
21   C        30.3625   -3.8060   35.5404  C     
22   C        31.1020   -2.2015   36.9438  C     
23   C        31.3850   -0.8792   37.3687  C     
24   C        31.3827   -3.1286   40.0150  C     
25   C        32.0745   -3.6680   38.7409  C     
26   N        31.8972   -0.6156   38.6146  N     
27   C        33.0143    0.2568   38.8399  C     
28   S        31.1667   -1.3375   39.9647  S     
29   O        29.6188   -0.9844   39.9722  O     
30   O        31.7093   -0.7247   41.3296  O     
31   N        31.3571   -3.4078   37.5181  N     
32   C        29.8468   -4.5227   34.3447  C     
33   C        28.3325   -4.3141   34.1240  C     
34   C        28.4134    6.4155   34.7364  C     
35   C        29.4788    7.0591   33.9349  C     
36   C        30.8210    6.8665   34.2948  C     
37   C        29.1889    7.9882   32.9079  C     
38   C        30.2208    8.6717   32.2340  C     
39   C        31.5608    8.4436   32.5910  C     
40   C        31.8633    7.5384   33.6262  C     
41   H        31.2823    1.1383   36.7562  H     
42   H        29.7878   -1.5978   33.9123  H     
43   H        28.5916    0.3534   33.5686  H     
44   H        30.0649    2.2877   31.9692  H     
45   H        27.2972    1.1904   31.3501  H     
46   H        28.4622    1.8796   30.2414  H     
47   H        31.6640   -1.7088   29.7647  H     
48   H        30.8131    0.5126   30.1949  H     
49   H        27.1001   -1.1603   31.3251  H     
50   H        27.9698   -3.3634   30.9009  H     
51   H        30.2518   -3.6538   30.1124  H     
52   H        27.3472    2.8476   33.1819  H     
53   H        29.0830    3.2512   34.8410  H     
54   H        30.0077    4.3692   33.8359  H     
55   H        27.1152    4.1196   31.6371  H     
56   H        27.2703    5.0271   33.8398  H     
57   H        27.6169    4.6308   35.3819  H     
58   H        30.9819   -5.3866   36.8514  H     
59   H        30.4087   -3.6034   40.1401  H     
60   H        31.9936   -3.3767   40.8853  H     
61   H        33.0735   -3.2346   38.6612  H     
62   H        32.2068   -4.7483   38.8785  H     
63   H        33.7820   -0.2708   39.4097  H     
64   H        32.6930    1.1321   39.4106  H     
65   H        33.4728    0.6050   37.9102  H     
66   H        30.3965   -4.1747   33.4693  H     
67   H        30.0355   -5.5951   34.4489  H     
68   H        27.7668   -4.7322   34.9560  H     
69   H        28.0327   -4.8198   33.2047  H     
70   H        28.0906   -3.2543   34.0257  H     
71   H        27.4873    6.9788   34.6128  H     
72   H        28.6963    6.4948   35.7943  H     
73   H        31.0368    6.2605   35.0638  H     
74   H        28.2206    8.1760   32.6365  H     
75   H        29.9952    9.3372   31.4819  H     
76   H        32.3111    8.9453   32.1138  H     
77   H        32.8328    7.3893   33.9039  H     
@<TRIPOS>BOND
     1    1    3 1
     2    1   23 2
     3    2    3 2
     4    2   19 1
     5    3    4 1
     6    4    5 2
     7    4    6 am
     8    6    7 1
     9    7    8 1
    10    7   15 1
    11    8    9 1
    12    9   11 2
    13    9   12 1
    14   10   11 1
    15   10   14 2
    16   12   13 2
    17   13   14 1
    18   15   16 1
    19   15   17 1
    20   16   18 1
    21   18   34 1
    22   19   21 1
    23   19   22 2
    24   20   21 2
    25   20   31 1
    26   21   32 1
    27   22   23 1
    28   22   31 1
    29   23   26 1
    30   24   25 1
    31   24   28 1
    32   25   31 1
    33   26   27 1
    34   26   28 1
    35   28   29 2
    36   28   30 2
    37   32   33 1
    38   34   35 1
    39   35   36 2
    40   35   37 1
    41   36   40 1
    42   37   38 2
    43   38   39 1
    44   39   40 2
    45    1   41 1
    46    2   42 1
    47    6   43 1
    48    7   44 1
    49    8   45 1
    50    8   46 1
    51   10   47 1
    52   11   48 1
    53   12   49 1
    54   13   50 1
    55   14   51 1
    56   15   52 1
    57   16   53 1
    58   16   54 1
    59   17   55 1
    60   18   56 1
    61   18   57 1
    62   20   58 1
    63   24   59 1
    64   24   60 1
    65   25   61 1
    66   25   62 1
    67   27   63 1
    68   27   64 1
    69   27   65 1
    70   32   66 1
    71   32   67 1
    72   33   68 1
    73   33   69 1
    74   33   70 1
    75   34   71 1
    76   34   72 1
    77   36   73 1
    78   37   74 1
    79   38   75 1
    80   39   76 1
    81   40   77 1
@<TRIPOS>PROPERTY_DATA
  Total_Score	| 15.8477
  Crash		| -1.1194
  Polar		| 6.7967
  FragIndex	| 1
  FragRMSD	| 0.399

