@<TRIPOS>MOLECULE
BindingDB_29788
 78 82 0 0 0
SMALL
NO_CHARGES


@<TRIPOS>ATOM
1    C        30.2367    0.9715   34.2431  C     
2    O        31.1695    1.7537   34.0634  O     
3    N        29.1201    1.0670   33.5149  N     
4    C        28.9242    1.8798   32.3386  C     
5    C        27.7799    2.9547   32.4657  C     
6    C        28.6335    0.9545   31.1027  C     
7    C        29.4646   -0.2804   30.9891  C     
8    C        31.6227   -1.3541   30.5530  C     
9    C        30.8326   -0.1939   30.6437  C     
10   C        28.9006   -1.5613   31.1914  C     
11   C        29.6919   -2.7188   31.0920  C     
12   C        31.0570   -2.6177   30.7878  C     
13   C        27.3454    3.4661   33.8764  C     
14   O        28.1562    4.0776   31.6517  O     
15   C        30.4338   -0.0821   35.1306  C     
16   C        30.9003    0.1309   36.4542  C     
17   C        30.2366   -1.4164   34.7074  C     
18   C        31.1226   -0.9325   37.3608  C     
19   C        32.2314   -2.9923   39.7277  C     
20   C        31.5083   -3.9674   38.7864  C     
21   C        30.9414   -2.2790   36.9091  C     
22   C        30.4970   -2.4788   35.5913  C     
23   C        30.7481   -4.4410   36.5501  C     
24   C        30.3862   -3.8415   35.3558  C     
25   N        31.4635   -0.5463   38.6137  N     
26   N        31.0939   -3.5126   37.4762  N     
27   S        31.2733   -1.4979   39.9787  S     
28   O        31.8920   -0.7145   41.2153  O     
29   O        29.7306   -1.7456   40.2649  O     
30   C        30.0036   -4.5472   34.1098  C     
31   C        28.4874   -4.4793   33.8196  C     
32   N        28.3735    3.7643   34.8942  N     
33   C        29.5255    4.6357   34.5359  C     
34   C        29.4289    6.0233   35.0648  C     
35   C        29.1836    6.2944   36.4335  C     
36   C        29.6563    7.1233   34.2001  C     
37   C        29.6074    8.4477   34.6715  C     
38   C        29.2975    8.6998   36.0156  C     
39   C        29.0989    7.6237   36.9080  C     
40   O        28.8098    7.8736   38.2264  O     
41   C        29.9738    8.1154   39.0372  C     
42   H        28.3866    0.4708   33.7591  H     
43   H        29.8541    2.4145   32.1106  H     
44   H        26.8643    2.5522   32.0244  H     
45   H        27.5787    0.6663   31.1273  H     
46   H        28.7770    1.5327   30.1878  H     
47   H        32.6150   -1.2852   30.3092  H     
48   H        31.2620    0.7180   30.4590  H     
49   H        27.9052   -1.6645   31.4183  H     
50   H        29.2665   -3.6370   31.2402  H     
51   H        31.6351   -3.4597   30.7350  H     
52   H        26.7477    4.3721   33.7392  H     
53   H        26.6884    2.7183   34.3180  H     
54   H        27.3335    4.3692   31.1936  H     
55   H        31.0478    1.0939   36.7736  H     
56   H        29.9312   -1.6179   33.7521  H     
57   H        32.3993   -3.4702   40.6953  H     
58   H        33.2017   -2.7200   39.3055  H     
59   H        32.1902   -4.8151   38.6624  H     
60   H        30.6214   -4.3509   39.2994  H     
61   H        30.7634   -5.4549   36.6969  H     
62   H        31.6594    0.3888   38.7590  H     
63   H        30.5575   -4.1083   33.2798  H     
64   H        30.2901   -5.5990   34.1717  H     
65   H        27.9343   -5.0309   34.5848  H     
66   H        28.2800   -4.9297   32.8469  H     
67   H        28.1339   -3.4478   33.7976  H     
68   H        27.8732    4.1956   35.6852  H     
69   H        28.7532    2.8727   35.2383  H     
70   H        30.4176    4.1729   34.9533  H     
71   H        29.6521    4.6652   33.4491  H     
72   H        29.0548    5.5249   37.0941  H     
73   H        29.8951    6.9639   33.2160  H     
74   H        29.7956    9.2204   34.0348  H     
75   H        29.2398    9.6683   36.3524  H     
76   H        30.6551    7.2555   39.0036  H     
77   H        29.6582    8.2557   40.0725  H     
78   H        30.5079    9.0126   38.7178  H     
@<TRIPOS>BOND
     1    1    2 2
     2    1    3 am
     3    1   15 1
     4    3    4 1
     5    4    5 1
     6    4    6 1
     7    5   13 1
     8    5   14 1
     9    6    7 1
    10    7    9 2
    11    7   10 1
    12    8    9 1
    13    8   12 2
    14   10   11 2
    15   11   12 1
    16   13   32 1
    17   15   16 1
    18   15   17 2
    19   16   18 2
    20   17   22 1
    21   18   21 1
    22   18   25 1
    23   19   20 1
    24   19   27 1
    25   20   26 1
    26   21   22 2
    27   21   26 1
    28   22   24 1
    29   23   24 2
    30   23   26 1
    31   24   30 1
    32   25   27 1
    33   27   28 2
    34   27   29 2
    35   30   31 1
    36   32   33 1
    37   33   34 1
    38   34   35 2
    39   34   36 1
    40   35   39 1
    41   36   37 2
    42   37   38 1
    43   38   39 2
    44   39   40 1
    45   40   41 1
    46    3   42 1
    47    4   43 1
    48    5   44 1
    49    6   45 1
    50    6   46 1
    51    8   47 1
    52    9   48 1
    53   10   49 1
    54   11   50 1
    55   12   51 1
    56   13   52 1
    57   13   53 1
    58   14   54 1
    59   16   55 1
    60   17   56 1
    61   19   57 1
    62   19   58 1
    63   20   59 1
    64   20   60 1
    65   23   61 1
    66   25   62 1
    67   30   63 1
    68   30   64 1
    69   31   65 1
    70   31   66 1
    71   31   67 1
    72   32   68 1
    73   32   69 1
    74   33   70 1
    75   33   71 1
    76   35   72 1
    77   36   73 1
    78   37   74 1
    79   38   75 1
    80   41   76 1
    81   41   77 1
    82   41   78 1
@<TRIPOS>PROPERTY_DATA
  Total_Score	| 17.1847
  Crash		| -1.0913
  Polar		| 6.6148
  FragIndex	| 1
  FragRMSD	| 0.814

