@<TRIPOS>MOLECULE
BindingDB_29782
 81 85 0 0 0
SMALL
NO_CHARGES


@<TRIPOS>ATOM
1    C        30.3552    0.9855   34.3423  C     
2    O        31.1874    1.8818   34.2337  O     
3    N        29.1873    1.0685   33.7059  N     
4    C        28.7509    2.1418   32.8521  C     
5    C        27.9683    3.1619   33.7344  C     
6    C        27.9675    1.5753   31.6169  C     
7    C        28.5329    0.2871   31.1014  C     
8    C        30.4517   -1.0061   30.2846  C     
9    C        29.8675    0.2257   30.6297  C     
10   C        27.7853   -0.9138   31.1708  C     
11   C        28.3649   -2.1468   30.8128  C     
12   C        29.7021   -2.1915   30.3790  C     
13   C        27.9315    4.6153   33.1806  C     
14   O        26.6266    2.6988   33.9506  O     
15   C        30.6163   -0.0876   35.1884  C     
16   C        31.1716    0.1145   36.4793  C     
17   C        30.3284   -1.4102   34.7768  C     
18   C        31.4358   -0.9625   37.3658  C     
19   C        31.2522   -3.2379   39.9681  C     
20   C        32.0144   -3.7772   38.7356  C     
21   C        31.1584   -2.2767   36.9068  C     
22   C        30.6048   -2.4801   35.6408  C     
23   C        30.9546   -4.4421   36.6095  C     
24   C        30.4631   -3.8500   35.4483  C     
25   N        31.9077   -0.7174   38.6326  N     
26   N        31.3680   -3.4919   37.4778  N     
27   S        31.1058   -1.4372   39.9430  S     
28   O        31.6195   -0.8702   41.3393  O     
29   O        29.5704   -1.0320   39.8968  O     
30   C        33.0231    0.1476   38.8951  C     
31   C        29.9879   -4.5484   34.2331  C     
32   C        28.4678   -4.3917   33.9904  C     
33   N        27.9073    5.6262   34.2678  N     
34   C        29.2115    6.1589   34.7251  C     
35   C        29.9601    7.0189   33.7653  C     
36   C        29.3471    7.6460   32.6496  C     
37   C        31.3367    7.2706   33.9954  C     
38   C        32.0771    8.0899   33.1227  C     
39   C        31.4482    8.7085   32.0279  C     
40   C        30.0738    8.5099   31.7977  C     
41   O        29.4650    9.1009   30.7182  O     
42   C        28.3353    9.9280   31.0561  C     
43   H        28.5364    0.3709   33.8867  H     
44   H        29.6340    2.6498   32.4502  H     
45   H        28.4383    3.1889   34.7206  H     
46   H        26.9181    1.4327   31.8901  H     
47   H        27.9797    2.3053   30.8059  H     
48   H        31.4263   -1.0452   29.9789  H     
49   H        30.4353    1.0762   30.5711  H     
50   H        26.8225   -0.9080   31.5123  H     
51   H        27.8222   -3.0077   30.8827  H     
52   H        30.1302   -3.0906   30.1361  H     
53   H        28.7740    4.7950   32.5079  H     
54   H        27.0204    4.7435   32.5817  H     
55   H        26.2096    3.3351   34.5756  H     
56   H        31.3532    1.0722   36.8018  H     
57   H        29.9599   -1.5923   33.8403  H     
58   H        30.2531   -3.6767   40.0016  H     
59   H        31.7792   -3.5315   40.8799  H     
60   H        33.0258   -3.3565   38.7236  H     
61   H        32.1275   -4.8587   38.8721  H     
62   H        31.0236   -5.4499   36.7571  H     
63   H        33.5080    0.4942   37.9777  H     
64   H        33.7742   -0.3882   39.4800  H     
65   H        32.6938    1.0249   39.4592  H     
66   H        30.5296   -4.1579   33.3658  H     
67   H        30.2113   -5.6177   34.3024  H     
68   H        27.9046   -4.8439   34.8110  H     
69   H        28.1929   -4.8950   33.0585  H     
70   H        28.1897   -3.3387   33.9077  H     
71   H        27.3237    6.4138   33.9711  H     
72   H        27.4402    5.2024   35.0750  H     
73   H        29.0302    6.7639   35.6121  H     
74   H        29.8552    5.3263   35.0291  H     
75   H        28.3579    7.4922   32.4488  H     
76   H        31.8084    6.8487   34.8017  H     
77   H        33.0801    8.2285   33.2867  H     
78   H        31.9889    9.3032   31.4089  H     
79   H        27.5230    9.3273   31.4709  H     
80   H        27.9736   10.4068   30.1450  H     
81   H        28.6075   10.7131   31.7656  H     
@<TRIPOS>BOND
     1    1    2 2
     2    1    3 am
     3    1   15 1
     4    3    4 1
     5    4    5 1
     6    4    6 1
     7    5   13 1
     8    5   14 1
     9    6    7 1
    10    7    9 2
    11    7   10 1
    12    8    9 1
    13    8   12 2
    14   10   11 2
    15   11   12 1
    16   13   33 1
    17   15   16 1
    18   15   17 2
    19   16   18 2
    20   17   22 1
    21   18   21 1
    22   18   25 1
    23   19   20 1
    24   19   27 1
    25   20   26 1
    26   21   22 2
    27   21   26 1
    28   22   24 1
    29   23   24 2
    30   23   26 1
    31   24   31 1
    32   25   27 1
    33   25   30 1
    34   27   28 2
    35   27   29 2
    36   31   32 1
    37   33   34 1
    38   34   35 1
    39   35   36 2
    40   35   37 1
    41   36   40 1
    42   37   38 2
    43   38   39 1
    44   39   40 2
    45   40   41 1
    46   41   42 1
    47    3   43 1
    48    4   44 1
    49    5   45 1
    50    6   46 1
    51    6   47 1
    52    8   48 1
    53    9   49 1
    54   10   50 1
    55   11   51 1
    56   12   52 1
    57   13   53 1
    58   13   54 1
    59   14   55 1
    60   16   56 1
    61   17   57 1
    62   19   58 1
    63   19   59 1
    64   20   60 1
    65   20   61 1
    66   23   62 1
    67   30   63 1
    68   30   64 1
    69   30   65 1
    70   31   66 1
    71   31   67 1
    72   32   68 1
    73   32   69 1
    74   32   70 1
    75   33   71 1
    76   33   72 1
    77   34   73 1
    78   34   74 1
    79   36   75 1
    80   37   76 1
    81   38   77 1
    82   39   78 1
    83   42   79 1
    84   42   80 1
    85   42   81 1
@<TRIPOS>PROPERTY_DATA
  Total_Score	| 17.7905
  Crash		| -1.3496
  Polar		| 8.1585
  FragIndex	| 1
  FragRMSD	| 0.618

