@<TRIPOS>MOLECULE
BindingDB_26506
 91 94 0 0 0
SMALL
NO_CHARGES


@<TRIPOS>ATOM
1    C        31.1453    0.1518   36.4485  C     
2    C        30.1727   -1.3264   34.7788  C     
3    C        30.5277   -0.0150   35.1793  C     
4    C        30.3247    1.0556   34.3114  C     
5    O        31.0559    2.0489   34.3374  O     
6    N        29.2594    1.0765   33.5136  N     
7    C        29.0196    1.9907   32.4280  C     
8    C        28.2937    1.2589   31.2488  C     
9    C        28.8441   -0.0853   30.9155  C     
10   C        30.6991   -1.5056   30.1662  C     
11   C        30.1778   -0.2319   30.4607  C     
12   C        28.0467   -1.2469   31.0690  C     
13   C        28.5663   -2.5176   30.7692  C     
14   C        29.8949   -2.6500   30.3251  C     
15   C        28.2080    3.2448   32.8841  C     
16   C        28.8428    4.0034   34.0818  C     
17   O        28.1125    4.1307   31.7653  O     
18   N        28.0424    5.2013   34.4728  N     
19   C        30.4346   -2.4165   35.6254  C     
20   C        30.7506   -4.3930   36.5601  C     
21   C        30.2239   -3.7762   35.4266  C     
22   C        31.0633   -2.2389   36.8619  C     
23   C        31.4109   -0.9410   37.3141  C     
24   C        31.2677   -3.2287   39.9034  C     
25   C        31.9523   -3.7865   38.6327  C     
26   N        31.9577   -0.7315   38.5524  N     
27   C        33.1310    0.0744   38.7563  C     
28   S        31.1994   -1.4195   39.9001  S     
29   O        29.6827   -0.9474   39.9432  O     
30   O        31.8027   -0.8782   41.2696  O     
31   N        31.2521   -3.4675   37.4122  N     
32   C        29.6378   -4.4511   34.2465  C     
33   C        28.0990   -4.3340   34.1795  C     
34   C        29.0934    5.8158   36.6762  C     
35   C        30.0897    6.6679   37.5192  C     
36   C        29.5792    7.9568   38.2409  C     
37   C        30.2720    9.3208   37.8755  C     
38   C        31.7561    9.2004   37.4105  C     
39   C        29.4701   10.1519   36.8420  C     
40   C        29.8701    6.8833   34.3893  C     
41   C        28.6811    6.3174   35.2430  C     
42   C        27.5862    7.4262   35.3522  C     
43   H        31.3776    1.0929   36.7733  H     
44   H        29.7573   -1.4957   33.8561  H     
45   H        28.6317    0.3283   33.5782  H     
46   H        29.9778    2.3488   32.0333  H     
47   H        27.2254    1.1613   31.4874  H     
48   H        28.3477    1.8714   30.3401  H     
49   H        31.6619   -1.6033   29.8337  H     
50   H        30.7726    0.5905   30.3265  H     
51   H        27.0811   -1.1762   31.3949  H     
52   H        27.9750   -3.3454   30.8799  H     
53   H        30.2705   -3.5760   30.1112  H     
54   H        27.1958    2.9329   33.1745  H     
55   H        28.9058    3.3269   34.9442  H     
56   H        29.8684    4.2763   33.8165  H     
57   H        27.1612    4.2103   31.5480  H     
58   H        27.6683    5.6165   33.6152  H     
59   H        27.2510    4.8675   35.0242  H     
60   H        30.7714   -5.4080   36.7093  H     
61   H        30.2504   -3.6243   39.9741  H     
62   H        31.8208   -3.5543   40.7891  H     
63   H        32.9733   -3.3985   38.5673  H     
64   H        32.0344   -4.8729   38.7563  H     
65   H        33.8901   -0.5069   39.2897  H     
66   H        32.8730    0.9574   39.3512  H     
67   H        33.5748    0.4122   37.8133  H     
68   H        30.0773   -4.0226   33.3430  H     
69   H        29.8983   -5.5127   34.2670  H     
70   H        27.6437   -4.7909   35.0606  H     
71   H        27.7296   -4.8539   33.2933  H     
72   H        27.7843   -3.2920   34.1177  H     
73   H        29.5800    4.8492   36.5545  H     
74   H        28.1993    5.6333   37.2795  H     
75   H        30.4626    6.0031   38.3187  H     
76   H        30.9570    6.8842   36.9013  H     
77   H        28.5014    8.0479   38.1146  H     
78   H        29.7328    7.8125   39.3158  H     
79   H        30.2922    9.9164   38.7942  H     
80   H        32.3069    8.5106   38.0520  H     
81   H        32.2436   10.1782   37.4389  H     
82   H        31.8211    8.8363   36.3805  H     
83   H        29.4021    9.6151   35.8903  H     
84   H        29.9584   11.1218   36.6759  H     
85   H        28.4605   10.3424   37.2221  H     
86   H        30.7144    6.1933   34.3955  H     
87   H        30.2268    7.8405   34.7742  H     
88   H        29.5680    7.0366   33.3439  H     
89   H        27.3113    7.7683   34.3483  H     
90   H        27.9187    8.2893   35.9119  H     
91   H        26.6818    7.0406   35.8375  H     
@<TRIPOS>BOND
     1    1    3 1
     2    1   23 2
     3    2    3 2
     4    2   19 1
     5    3    4 1
     6    4    5 2
     7    4    6 am
     8    6    7 1
     9    7    8 1
    10    7   15 1
    11    8    9 1
    12    9   11 2
    13    9   12 1
    14   10   11 1
    15   10   14 2
    16   12   13 2
    17   13   14 1
    18   15   16 1
    19   15   17 1
    20   16   18 1
    21   18   41 1
    22   19   21 1
    23   19   22 2
    24   20   21 2
    25   20   31 1
    26   21   32 1
    27   22   23 1
    28   22   31 1
    29   23   26 1
    30   24   25 1
    31   24   28 1
    32   25   31 1
    33   26   27 1
    34   26   28 1
    35   28   29 2
    36   28   30 2
    37   32   33 1
    38   34   35 1
    39   34   41 1
    40   35   36 1
    41   36   37 1
    42   37   38 1
    43   37   39 1
    44   40   41 1
    45   41   42 1
    46    1   43 1
    47    2   44 1
    48    6   45 1
    49    7   46 1
    50    8   47 1
    51    8   48 1
    52   10   49 1
    53   11   50 1
    54   12   51 1
    55   13   52 1
    56   14   53 1
    57   15   54 1
    58   16   55 1
    59   16   56 1
    60   17   57 1
    61   18   58 1
    62   18   59 1
    63   20   60 1
    64   24   61 1
    65   24   62 1
    66   25   63 1
    67   25   64 1
    68   27   65 1
    69   27   66 1
    70   27   67 1
    71   32   68 1
    72   32   69 1
    73   33   70 1
    74   33   71 1
    75   33   72 1
    76   34   73 1
    77   34   74 1
    78   35   75 1
    79   35   76 1
    80   36   77 1
    81   36   78 1
    82   37   79 1
    83   38   80 1
    84   38   81 1
    85   38   82 1
    86   39   83 1
    87   39   84 1
    88   39   85 1
    89   40   86 1
    90   40   87 1
    91   40   88 1
    92   42   89 1
    93   42   90 1
    94   42   91 1
@<TRIPOS>PROPERTY_DATA
  Total_Score	| 19.3573
  Crash		| -2.3919
  Polar		| 6.5226
  FragIndex	| 1
  FragRMSD	| 0.299

