@<TRIPOS>MOLECULE
BindingDB_29799
 76 79 0 0 0
SMALL
NO_CHARGES


@<TRIPOS>ATOM
1    C        31.1147    0.1251   36.4745  C     
2    C        30.3015   -1.3896   34.7500  C     
3    C        30.5603   -0.0681   35.1808  C     
4    C        30.3014    1.0090   34.3435  C     
5    O        31.1501    1.8833   34.2179  O     
6    N        29.1309    1.1119   33.7159  N     
7    C        28.7311    2.1710   32.8286  C     
8    C        27.9453    3.2342   33.6792  C     
9    C        27.9670    1.5669   31.5961  C     
10   C        28.5450    0.2731   31.1022  C     
11   C        28.3804   -2.1591   30.7883  C     
12   C        27.7919   -0.9256   31.1378  C     
13   C        29.8921    0.2021   30.6701  C     
14   C        30.4806   -1.0305   30.3317  C     
15   C        29.7263   -2.2131   30.3932  C     
16   C        27.9164    4.6852   33.1023  C     
17   N        27.7381    5.7135   34.1693  N     
18   O        26.6126    2.7770   33.9288  O     
19   C        31.4132   -0.9591   37.3371  C     
20   C        31.2322   -3.2691   39.8829  C     
21   C        32.0133   -3.7935   38.6544  C     
22   C        31.1584   -2.2695   36.8594  C     
23   C        30.6087   -2.4722   35.5928  C     
24   C        30.9873   -4.4003   36.5028  C     
25   N        31.9058   -0.7310   38.5968  N     
26   S        31.1274   -1.4631   39.9095  S     
27   O        31.6908   -0.9361   41.3017  O     
28   O        29.5982   -1.0236   39.9037  O     
29   C        30.0449   -4.4992   34.1936  C     
30   C        28.5163   -4.3963   33.9845  C     
31   C        33.0425    0.1134   38.8399  C     
32   C        28.9080    6.5387   34.5932  C     
33   C        28.5117    7.4025   35.8487  C     
34   C        28.8512    6.8810   37.2696  C     
35   C        30.2010    5.6928   34.7651  C     
36   C        30.5086   -3.8197   35.3965  C     
37   N        31.3775   -3.4913   37.3961  N     
38   H        31.2833    1.0795   36.8097  H     
39   H        29.9339   -1.5722   33.8133  H     
40   H        28.4633    0.4344   33.9064  H     
41   H        29.6293    2.6509   32.4293  H     
42   H        28.4279    3.2902   34.6655  H     
43   H        26.9194    1.4137   31.8680  H     
44   H        27.9701    2.2901   30.7740  H     
45   H        27.8351   -3.0209   30.8377  H     
46   H        26.8132   -0.9142   31.4394  H     
47   H        30.4589    1.0511   30.6242  H     
48   H        31.4629   -1.0685   30.0508  H     
49   H        30.1608   -3.1102   30.1612  H     
50   H        28.8294    4.8836   32.5328  H     
51   H        27.0754    4.7655   32.4069  H     
52   H        27.0394    6.3766   33.8285  H     
53   H        27.3510    5.2577   35.0015  H     
54   H        26.2102    3.4192   34.5574  H     
55   H        30.2225   -3.6847   39.8806  H     
56   H        31.7298   -3.5983   40.7987  H     
57   H        33.0205   -3.3675   38.6580  H     
58   H        32.1279   -4.8749   38.7782  H     
59   H        31.0680   -5.3835   36.6254  H     
60   H        30.3046   -5.5611   34.2280  H     
61   H        30.5557   -4.0708   33.3278  H     
62   H        27.9862   -4.8845   34.8058  H     
63   H        28.2416   -4.8917   33.0507  H     
64   H        28.1914   -3.3561   33.9264  H     
65   H        33.5040    0.4700   37.9155  H     
66   H        33.8017   -0.4435   39.3922  H     
67   H        32.7414    0.9832   39.4282  H     
68   H        29.1065    7.2320   33.7689  H     
69   H        29.0005    8.3738   35.7552  H     
70   H        27.4344    7.6015   35.8334  H     
71   H        28.3274    5.9465   37.4768  H     
72   H        28.5411    7.6176   38.0154  H     
73   H        29.9246    6.7289   37.3788  H     
74   H        30.0659    4.9457   35.5508  H     
75   H        31.0314    6.3516   35.0271  H     
76   H        30.4728    5.1824   33.8365  H     
@<TRIPOS>BOND
     1    1    3 2
     2    1   19 1
     3    2    3 1
     4    2   23 2
     5    3    4 1
     6    4    5 2
     7    4    6 am
     8    6    7 1
     9    7    8 1
    10    7    9 1
    11    8   16 1
    12    8   18 1
    13    9   10 1
    14   10   12 1
    15   10   13 2
    16   11   12 2
    17   11   15 1
    18   13   14 1
    19   14   15 2
    20   16   17 1
    21   17   32 1
    22   19   22 2
    23   19   25 1
    24   20   21 1
    25   20   26 1
    26   21   37 1
    27   22   23 1
    28   22   37 1
    29   23   36 1
    30   24   36 2
    31   24   37 1
    32   25   26 1
    33   25   31 1
    34   26   27 2
    35   26   28 2
    36   29   30 1
    37   29   36 1
    38   32   33 1
    39   32   35 1
    40   33   34 1
    41    1   38 1
    42    2   39 1
    43    6   40 1
    44    7   41 1
    45    8   42 1
    46    9   43 1
    47    9   44 1
    48   11   45 1
    49   12   46 1
    50   13   47 1
    51   14   48 1
    52   15   49 1
    53   16   50 1
    54   16   51 1
    55   17   52 1
    56   17   53 1
    57   18   54 1
    58   20   55 1
    59   20   56 1
    60   21   57 1
    61   21   58 1
    62   24   59 1
    63   29   60 1
    64   29   61 1
    65   30   62 1
    66   30   63 1
    67   30   64 1
    68   31   65 1
    69   31   66 1
    70   31   67 1
    71   32   68 1
    72   33   69 1
    73   33   70 1
    74   34   71 1
    75   34   72 1
    76   34   73 1
    77   35   74 1
    78   35   75 1
    79   35   76 1
@<TRIPOS>PROPERTY_DATA
  Total_Score	| 17.4647
  Crash		| -1.4738
  Polar		| 8.0520
  FragIndex	| 1
  FragRMSD	| 0.697

