@<TRIPOS>MOLECULE
BindingDB_29777
 73 76 0 0 0
SMALL
NO_CHARGES


@<TRIPOS>ATOM
1    C        31.2357    0.0133   36.4115  C     
2    C        30.2129   -1.4708   34.7705  C     
3    C        30.5958   -0.1583   35.1562  C     
4    C        30.3137    0.9338   34.3344  C     
5    O        31.0206    1.9426   34.3727  O     
6    N        29.1726    0.9898   33.6604  N     
7    C        28.7428    2.0980   32.8449  C     
8    C        28.0088    3.1273   33.7648  C     
9    C        27.9408    1.5634   31.6220  C     
10   C        28.4766    0.2666   31.1026  C     
11   C        30.3751   -1.0573   30.2808  C     
12   C        29.7957    0.1862   30.5976  C     
13   C        27.7373   -0.9374   31.2353  C     
14   C        28.3145   -2.1793   30.9047  C     
15   C        29.6364   -2.2397   30.4335  C     
16   C        27.9437    4.5715   33.1869  C     
17   N        27.9575    5.6302   34.2310  N     
18   O        26.6862    2.6617   34.0252  O     
19   C        31.4834   -1.0711   37.2871  C     
20   C        31.2566   -3.2933   39.9169  C     
21   C        31.9169   -3.8967   38.6534  C     
22   C        31.0954   -2.3649   36.8578  C     
23   C        30.4686   -2.5556   35.6261  C     
24   C        30.7106   -4.4818   36.5880  C     
25   C        30.2377   -3.8954   35.4821  C     
26   N        31.2266   -3.5850   37.4271  N     
27   N        32.0130   -0.8496   38.5324  N     
28   C        33.2239   -0.1061   38.7359  C     
29   S        31.2052   -1.4896   39.8730  S     
30   O        29.6949   -0.9988   39.8594  O     
31   O        31.7950   -0.9247   41.2395  O     
32   C        29.6420   -4.5651   34.3352  C     
33   C        28.1110   -4.3608   34.2356  C     
34   C        29.2613    6.1811   34.6808  C     
35   C        30.1575    6.7027   33.5248  C     
36   C        31.2578    7.7068   33.9734  C     
37   F        32.0136    8.0864   32.8902  F     
38   F        30.7081    8.8449   34.5157  F     
39   F        32.1041    7.1439   34.8977  F     
40   H        31.4909    0.9589   36.7138  H     
41   H        29.7756   -1.6376   33.8599  H     
42   H        28.5705    0.2225   33.7140  H     
43   H        29.6335    2.5930   32.4409  H     
44   H        28.5452    3.1580   34.7169  H     
45   H        26.8952    1.4524   31.9058  H     
46   H        27.9714    2.2965   30.8151  H     
47   H        31.3414   -1.1045   29.9542  H     
48   H        30.3617    1.0308   30.4916  H     
49   H        26.7841   -0.9256   31.6053  H     
50   H        27.7827   -3.0434   31.0254  H     
51   H        30.0631   -3.1432   30.2129  H     
52   H        28.7622    4.7299   32.4792  H     
53   H        27.0091    4.6837   32.6301  H     
54   H        27.3925    6.4184   33.8959  H     
55   H        27.4842    5.2503   35.0536  H     
56   H        26.2779    3.3263   34.6265  H     
57   H        30.2402   -3.6761   40.0200  H     
58   H        31.8257   -3.5973   40.7961  H     
59   H        32.9485   -3.5368   38.5760  H     
60   H        31.9759   -4.9820   38.7991  H     
61   H        30.7016   -5.4625   36.7440  H     
62   H        33.6932    0.1952   37.7938  H     
63   H        33.9457   -0.7176   39.2843  H     
64   H        33.0051    0.7931   39.3167  H     
65   H        30.1153   -4.1880   33.4230  H     
66   H        29.8413   -5.6407   34.3759  H     
67   H        27.6124   -4.8272   35.0894  H     
68   H        27.7404   -4.8259   33.3185  H     
69   H        27.8551   -3.3001   34.2117  H     
70   H        29.0281    7.0141   35.3423  H     
71   H        29.8091    5.4412   35.2653  H     
72   H        30.6466    5.8530   33.0380  H     
73   H        29.5205    7.1909   32.7819  H     
@<TRIPOS>BOND
     1    1    3 2
     2    1   19 1
     3    2    3 1
     4    2   23 2
     5    3    4 1
     6    4    5 2
     7    4    6 am
     8    6    7 1
     9    7    8 1
    10    7    9 1
    11    8   16 1
    12    8   18 1
    13    9   10 1
    14   10   12 1
    15   10   13 2
    16   11   12 2
    17   11   15 1
    18   13   14 1
    19   14   15 2
    20   16   17 1
    21   17   34 1
    22   19   22 2
    23   19   27 1
    24   20   21 1
    25   20   29 1
    26   21   26 1
    27   22   23 1
    28   22   26 1
    29   23   25 1
    30   24   25 2
    31   24   26 1
    32   25   32 1
    33   27   28 1
    34   27   29 1
    35   29   30 2
    36   29   31 2
    37   32   33 1
    38   34   35 1
    39   35   36 1
    40   36   37 1
    41   36   38 1
    42   36   39 1
    43    1   40 1
    44    2   41 1
    45    6   42 1
    46    7   43 1
    47    8   44 1
    48    9   45 1
    49    9   46 1
    50   11   47 1
    51   12   48 1
    52   13   49 1
    53   14   50 1
    54   15   51 1
    55   16   52 1
    56   16   53 1
    57   17   54 1
    58   17   55 1
    59   18   56 1
    60   20   57 1
    61   20   58 1
    62   21   59 1
    63   21   60 1
    64   24   61 1
    65   28   62 1
    66   28   63 1
    67   28   64 1
    68   32   65 1
    69   32   66 1
    70   33   67 1
    71   33   68 1
    72   33   69 1
    73   34   70 1
    74   34   71 1
    75   35   72 1
    76   35   73 1
@<TRIPOS>PROPERTY_DATA
  Total_Score	| 16.1269
  Crash		| -1.0507
  Polar		| 7.7686
  FragIndex	| 1
  FragRMSD	| 0.645

