@<TRIPOS>MOLECULE
BindingDB_26508
 80 84 0 0 0
SMALL
NO_CHARGES


@<TRIPOS>ATOM
1    C        31.1235    0.1877   36.5188  C     
2    C        30.2662   -1.3393   34.8188  C     
3    C        30.5582   -0.0179   35.2303  C     
4    C        30.3117    1.0514   34.3874  C     
5    O        31.1632    1.9338   34.2620  O     
6    N        29.1517    1.1452   33.7390  N     
7    C        28.7621    2.2071   32.8541  C     
8    C        28.0072    1.6297   31.6078  C     
9    C        28.5815    0.3430   31.0967  C     
10   C        28.3967   -2.0861   30.7172  C     
11   C        27.8116   -0.8539   31.0829  C     
12   C        29.9420    0.2587   30.7105  C     
13   C        30.5260   -0.9745   30.3666  C     
14   C        29.7528   -2.1492   30.3763  C     
15   C        27.9449    3.2377   33.6981  C     
16   C        27.8246    4.6762   33.0878  C     
17   O        26.6520    2.6866   33.9926  O     
18   N        27.8853    5.7481   34.1211  N     
19   C        30.5837   -2.4165   35.6653  C     
20   C        31.0261   -4.3705   36.6038  C     
21   C        30.4754   -3.7860   35.4711  C     
22   C        31.1659   -2.2077   36.9201  C     
23   C        31.4164   -0.8907   37.3848  C     
24   C        31.3973   -3.1914   39.9726  C     
25   C        32.1369   -3.6788   38.7039  C     
26   N        31.9047   -0.6543   38.6426  N     
27   C        33.0858    0.1329   38.8729  C     
28   S        31.1467   -1.4039   39.9515  S     
29   O        29.5867   -1.0861   39.9055  O     
30   O        31.6198   -0.7947   41.3485  O     
31   N        31.4324   -3.4147   37.4726  N     
32   C        29.9556   -4.4961   34.2716  C     
33   C        28.4299   -4.3259   34.0974  C     
34   C        29.2100    6.3994   34.4125  C     
35   C        28.3868    8.2940   35.9878  C     
36   C        29.0421    7.9358   34.6242  C     
37   C        29.9741    5.7954   35.6292  C     
38   C        29.2996    6.1091   36.9858  C     
39   C        29.1303    7.6358   37.1889  C     
40   H        31.2959    1.1414   36.8422  H     
41   H        29.8753   -1.5273   33.8907  H     
42   H        28.4810    0.4670   33.9441  H     
43   H        29.6555    2.7046   32.4717  H     
44   H        26.9470    1.4773   31.8498  H     
45   H        28.0321    2.3626   30.7958  H     
46   H        27.8325   -2.9401   30.7258  H     
47   H        26.8260   -0.8410   31.3525  H     
48   H        30.5289    1.1001   30.7163  H     
49   H        31.5179   -1.0178   30.1205  H     
50   H        30.1792   -3.0459   30.1175  H     
51   H        28.4442    3.3300   34.6787  H     
52   H        28.5872    4.8579   32.3257  H     
53   H        26.8599    4.7674   32.6011  H     
54   H        26.2164    3.3568   34.5803  H     
55   H        27.2451    6.4868   33.8023  H     
56   H        27.4841    5.3767   34.9935  H     
57   H        31.1404   -5.3806   36.7428  H     
58   H        30.4267   -3.6868   40.0550  H     
59   H        31.9877   -3.4501   40.8541  H     
60   H        33.1190   -3.1999   38.6531  H     
61   H        32.3169   -4.7526   38.8208  H     
62   H        33.5392    0.4918   37.9462  H     
63   H        33.8289   -0.4765   39.3914  H     
64   H        32.8392    0.9987   39.4918  H     
65   H        30.4667   -4.1156   33.3839  H     
66   H        30.1747   -5.5641   34.3475  H     
67   H        27.8998   -4.7283   34.9648  H     
68   H        28.0988   -4.8680   33.2083  H     
69   H        28.1632   -3.2726   33.9777  H     
70   H        29.8613    6.2824   33.5402  H     
71   H        28.4028    9.3828   36.1184  H     
72   H        27.3415    7.9734   35.9813  H     
73   H        30.0281    8.4097   34.5805  H     
74   H        28.4453    8.3525   33.8087  H     
75   H        30.0707    4.7068   35.5285  H     
76   H        30.9812    6.2284   35.6304  H     
77   H        28.3218    5.6323   37.0398  H     
78   H        29.9199    5.7071   37.7864  H     
79   H        30.1176    8.1009   37.3002  H     
80   H        28.5702    7.8206   38.1108  H     
@<TRIPOS>BOND
     1    1    3 1
     2    1   23 2
     3    2    3 2
     4    2   19 1
     5    3    4 1
     6    4    5 2
     7    4    6 am
     8    6    7 1
     9    7    8 1
    10    7   15 1
    11    8    9 1
    12    9   11 2
    13    9   12 1
    14   10   11 1
    15   10   14 2
    16   12   13 2
    17   13   14 1
    18   15   16 1
    19   15   17 1
    20   16   18 1
    21   18   34 1
    22   19   21 1
    23   19   22 2
    24   20   21 2
    25   20   31 1
    26   21   32 1
    27   22   23 1
    28   22   31 1
    29   23   26 1
    30   24   25 1
    31   24   28 1
    32   25   31 1
    33   26   27 1
    34   26   28 1
    35   28   29 2
    36   28   30 2
    37   32   33 1
    38   34   36 1
    39   34   37 1
    40   35   36 1
    41   35   39 1
    42   37   38 1
    43   38   39 1
    44    1   40 1
    45    2   41 1
    46    6   42 1
    47    7   43 1
    48    8   44 1
    49    8   45 1
    50   10   46 1
    51   11   47 1
    52   12   48 1
    53   13   49 1
    54   14   50 1
    55   15   51 1
    56   16   52 1
    57   16   53 1
    58   17   54 1
    59   18   55 1
    60   18   56 1
    61   20   57 1
    62   24   58 1
    63   24   59 1
    64   25   60 1
    65   25   61 1
    66   27   62 1
    67   27   63 1
    68   27   64 1
    69   32   65 1
    70   32   66 1
    71   33   67 1
    72   33   68 1
    73   33   69 1
    74   34   70 1
    75   35   71 1
    76   35   72 1
    77   36   73 1
    78   36   74 1
    79   37   75 1
    80   37   76 1
    81   38   77 1
    82   38   78 1
    83   39   79 1
    84   39   80 1
@<TRIPOS>PROPERTY_DATA
  Total_Score	| 17.4245
  Crash		| -2.2743
  Polar		| 8.0428
  FragIndex	| 1
  FragRMSD	| 0.944

