@<TRIPOS>MOLECULE
BindingDB_29803
 70 73 0 0 0
SMALL
NO_CHARGES


@<TRIPOS>ATOM
1    C        31.1127    0.0841   36.3423  C     
2    C        30.2551   -1.4905   34.6946  C     
3    C        30.5612   -0.1573   35.0550  C     
4    C        30.3453    0.8842   34.1560  C     
5    O        31.1480    1.8162   34.1279  O     
6    N        29.2650    0.9045   33.3757  N     
7    C        28.9558    1.8908   32.3620  C     
8    C        27.9493    2.9690   32.8832  C     
9    C        28.3991    1.2001   31.0683  C     
10   C        28.9274   -0.1594   30.7813  C     
11   C        28.6085   -2.5918   30.7338  C     
12   C        28.1026   -1.3027   30.9584  C     
13   C        30.2609   -0.3458   30.3507  C     
14   C        30.7661   -1.6386   30.1178  C     
15   C        29.9408   -2.7631   30.3102  C     
16   C        28.0820    3.4051   34.3829  C     
17   N        28.3003    4.8621   34.6185  N     
18   O        28.0451    4.1083   32.0164  O     
19   C        31.3817   -0.9685   37.2609  C     
20   C        31.2549   -3.1971   39.9135  C     
21   C        31.9748   -3.7678   38.6683  C     
22   C        31.0958   -2.2931   36.8401  C     
23   C        30.5320   -2.5392   35.5861  C     
24   C        30.8673   -4.4318   36.5821  C     
25   N        31.8726   -0.6970   38.5168  N     
26   S        31.1039   -1.4037   39.8506  S     
27   O        29.5607   -0.9982   39.8444  O     
28   O        31.6451   -0.8132   41.2305  O     
29   C        29.9410   -4.6213   34.2757  C     
30   C        28.4462   -4.4027   33.9439  C     
31   C        32.9801    0.1851   38.7444  C     
32   C        29.6426    5.2809   35.1139  C     
33   C        30.3077    6.2970   34.1624  C     
34   C        30.3932   -3.8926   35.4535  C     
35   N        31.2934   -3.4961   37.4266  N     
36   H        31.3010    1.0497   36.6283  H     
37   H        29.8807   -1.6971   33.7657  H     
38   H        28.6057    0.2073   33.5251  H     
39   H        29.8777    2.4167   32.0834  H     
40   H        26.9370    2.5566   32.7690  H     
41   H        27.3102    1.1518   31.1322  H     
42   H        28.6176    1.8408   30.2046  H     
43   H        28.0073   -3.4023   30.8792  H     
44   H        27.1366   -1.2027   31.2636  H     
45   H        30.8779    0.4636   30.2130  H     
46   H        31.7331   -1.7640   29.8177  H     
47   H        30.3043   -3.7017   30.1403  H     
48   H        27.1317    3.1558   34.8876  H     
49   H        28.8594    2.8009   34.8900  H     
50   H        28.0884    5.3892   33.7677  H     
51   H        27.6052    5.1357   35.3227  H     
52   H        27.1417    4.2211   31.6379  H     
53   H        30.2583   -3.6361   39.9950  H     
54   H        31.8162   -3.4671   40.8126  H     
55   H        32.9868   -3.3561   38.6147  H     
56   H        32.0826   -4.8453   38.8234  H     
57   H        30.9362   -5.4084   36.7422  H     
58   H        30.0953   -5.6961   34.4102  H     
59   H        30.5477   -4.3162   33.4195  H     
60   H        27.8183   -4.8007   34.7440  H     
61   H        28.1985   -4.9223   33.0162  H     
62   H        28.2174   -3.3439   33.8115  H     
63   H        33.7557   -0.3313   39.3131  H     
64   H        32.6467    1.0582   39.3090  H     
65   H        33.4359    0.5344   37.8152  H     
66   H        29.5015    5.7480   36.0987  H     
67   H        30.3366    4.4304   35.2332  H     
68   H        30.5172    5.8162   33.1987  H     
69   H        31.2539    6.6381   34.5975  H     
70   H        29.6594    7.1607   34.0013  H     
@<TRIPOS>BOND
     1    1    3 2
     2    1   19 1
     3    2    3 1
     4    2   23 2
     5    3    4 1
     6    4    5 2
     7    4    6 am
     8    6    7 1
     9    7    8 1
    10    7    9 1
    11    8   16 1
    12    8   18 1
    13    9   10 1
    14   10   12 1
    15   10   13 2
    16   11   12 2
    17   11   15 1
    18   13   14 1
    19   14   15 2
    20   16   17 1
    21   17   32 1
    22   19   22 2
    23   19   25 1
    24   20   21 1
    25   20   26 1
    26   21   35 1
    27   22   23 1
    28   22   35 1
    29   23   34 1
    30   24   34 2
    31   24   35 1
    32   25   26 1
    33   25   31 1
    34   26   27 2
    35   26   28 2
    36   29   30 1
    37   29   34 1
    38   32   33 1
    39    1   36 1
    40    2   37 1
    41    6   38 1
    42    7   39 1
    43    8   40 1
    44    9   41 1
    45    9   42 1
    46   11   43 1
    47   12   44 1
    48   13   45 1
    49   14   46 1
    50   15   47 1
    51   16   48 1
    52   16   49 1
    53   17   50 1
    54   17   51 1
    55   18   52 1
    56   20   53 1
    57   20   54 1
    58   21   55 1
    59   21   56 1
    60   24   57 1
    61   29   58 1
    62   29   59 1
    63   30   60 1
    64   30   61 1
    65   30   62 1
    66   31   63 1
    67   31   64 1
    68   31   65 1
    69   32   66 1
    70   32   67 1
    71   33   68 1
    72   33   69 1
    73   33   70 1
@<TRIPOS>PROPERTY_DATA
  Total_Score	| 16.1361
  Crash		| -1.2513
  Polar		| 6.6088
  FragIndex	| 1
  FragRMSD	| 0.391

