@<TRIPOS>MOLECULE
BindingDB_7533
 52 54 0 0 0
SMALL
NO_CHARGES


@<TRIPOS>ATOM
1    C       103.5404   99.1603   79.3689  C     
2    N       104.5831   99.0541   80.2264  N     
3    N       103.5840  100.0545   78.3373  N     
4    C       105.7344  100.7773   79.0277  C     
5    C       105.6651   99.8484   80.0752  C     
6    C       107.6006  100.7727   80.0997  C     
7    N       106.9435  101.3498   79.0743  N     
8    N       106.8369   99.8485   80.7352  N     
9    C       104.6553  100.8680   78.1216  C     
10   N       104.7316  101.6739   77.0262  N     
11   N       102.5144   98.3362   79.6346  N     
12   C       103.8317  101.6383   75.9118  C     
13   C       102.4804  102.1622   76.2331  C     
14   C        99.8852  103.1704   76.7612  C     
15   C       100.9719  104.0540   76.6193  C     
16   C       102.2647  103.5537   76.3833  C     
17   C       101.3765  101.2869   76.3571  C     
18   C       100.0887  101.7801   76.6360  C     
19   C       101.2006   98.4931   79.1183  C     
20   C       100.7967   97.2411   78.2958  C     
21   O        99.4809   97.3843   77.7488  O     
22   C       108.0891   99.7184   82.8831  C     
23   C       107.2825   98.9591   81.7993  C     
24   C       106.1777   98.1119   82.5084  C     
25   C       100.2358   98.7936   80.3047  C     
26   C       100.4036   97.8741   81.5529  C     
27   H       108.5823  100.9963   80.3278  H     
28   H       105.5277  102.2153   76.9259  H     
29   H       102.6214   97.7232   80.3701  H     
30   H       104.2600  102.2548   75.1225  H     
31   H       103.7809  100.6240   75.5109  H     
32   H        98.9467  103.5340   76.9494  H     
33   H       100.8219  105.0644   76.6972  H     
34   H       103.0446  104.2094   76.2944  H     
35   H       101.4980  100.2759   76.2413  H     
36   H        99.3015  101.1397   76.7356  H     
37   H       101.1758   99.3389   78.4238  H     
38   H       101.4908   97.0885   77.4599  H     
39   H       100.8158   96.3368   78.9226  H     
40   H        99.6091   97.8531   76.8954  H     
41   H       108.9274  100.2363   82.4197  H     
42   H       108.4873   99.0237   83.6225  H     
43   H       107.4491  100.4494   83.3822  H     
44   H       107.9635   98.2360   81.3324  H     
45   H       105.4606   98.7672   83.0015  H     
46   H       106.6170   97.4522   83.2718  H     
47   H       105.6455   97.4924   81.7811  H     
48   H       100.3951   99.8263   80.6383  H     
49   H        99.1967   98.7186   79.9537  H     
50   H       100.2310   96.8253   81.2893  H     
51   H        99.6905   98.1544   82.3335  H     
52   H       101.4065   97.9703   81.9821  H     
@<TRIPOS>BOND
     1    1    2 1
     2    1    3 2
     3    1   11 1
     4    2    5 2
     5    3    9 1
     6    4    5 1
     7    4    7 1
     8    4    9 2
     9    5    8 1
    10    6    7 2
    11    6    8 1
    12    8   23 1
    13    9   10 1
    14   10   12 1
    15   11   19 1
    16   12   13 1
    17   13   16 2
    18   13   17 1
    19   14   15 2
    20   14   18 1
    21   15   16 1
    22   17   18 2
    23   19   20 1
    24   19   25 1
    25   20   21 1
    26   22   23 1
    27   23   24 1
    28   25   26 1
    29    6   27 1
    30   10   28 1
    31   11   29 1
    32   12   30 1
    33   12   31 1
    34   14   32 1
    35   15   33 1
    36   16   34 1
    37   17   35 1
    38   18   36 1
    39   19   37 1
    40   20   38 1
    41   20   39 1
    42   21   40 1
    43   22   41 1
    44   22   42 1
    45   22   43 1
    46   23   44 1
    47   24   45 1
    48   24   46 1
    49   24   47 1
    50   25   48 1
    51   25   49 1
    52   26   50 1
    53   26   51 1
    54   26   52 1
@<TRIPOS>PROPERTY_DATA
  Total_Score	| 8.4395
  Crash		| -1.7709
  Polar		| 3.6492
  FragIndex	| 1
  FragRMSD	| 0.462

