@<TRIPOS>MOLECULE
BindingDB_50165283
 56 58 0 0 0
SMALL
NO_CHARGES


@<TRIPOS>ATOM
1    N         0.3050   11.6850   24.0173  N     
2    C        -0.3311   11.1539   25.0622  C     
3    C         1.5952   11.2944   24.1038  C     
4    N         1.7753   10.5180   25.2109  N     
5    C         0.5736   10.4211   25.8171  C     
6    C        -1.6811   11.1607   25.4483  C     
7    N         0.1665    9.7373   26.9191  N     
8    C         5.9343   13.9402   24.5252  C     
9    N        -2.0492   10.4665   26.5620  N     
10   C         6.1214   12.5876   24.1185  C     
11   C         4.6368   14.5049   24.5167  C     
12   C         2.5655   11.6641   23.0423  C     
13   C         3.7246   12.4454   23.5486  C     
14   C        -1.1422    9.7659   27.2975  C     
15   C         5.0187   11.8848   23.5907  C     
16   C         3.5495   13.7656   24.0146  C     
17   C         2.9489    9.8028   25.6393  C     
18   N        -2.5960   11.8255   24.7269  N     
19   O         6.9912   14.6615   25.0291  O     
20   O         7.2338   11.7945   24.2793  O     
21   O         4.4085   15.7719   24.9865  O     
22   C         2.8743    8.3070   25.2675  C     
23   O         1.5082    7.8605   25.3860  O     
24   C         1.0985    6.7310   24.5910  C     
25   C         7.5414   15.6430   24.1281  C     
26   C         4.1903   15.8344   26.4051  C     
27   C         8.4467   12.2406   24.9077  C     
28   C        -0.1047    6.0735   25.3067  C     
29   C         0.7040    7.1922   23.1641  C     
30   H         2.8800   10.7481   22.5415  H     
31   H         2.0624   12.2698   22.2781  H     
32   H        -1.4456    9.2547   28.1296  H     
33   H         5.1494   10.9166   23.2880  H     
34   H         2.6198   14.1915   24.0055  H     
35   H         3.8374   10.2518   25.2098  H     
36   H         3.0654    9.8777   26.7267  H     
37   H        -3.5299   11.8043   24.9887  H     
38   H        -2.3288   12.3162   23.9359  H     
39   H         3.2675    8.1681   24.2616  H     
40   H         3.4973    7.7323   25.9578  H     
41   H         1.8961    5.9798   24.5226  H     
42   H         7.8071   15.2032   23.1566  H     
43   H         8.4449   16.0461   24.5826  H     
44   H         6.8435   16.4674   23.9723  H     
45   H         3.3504   15.2134   26.7158  H     
46   H         3.9671   16.8705   26.6724  H     
47   H         5.0866   15.5354   26.9514  H     
48   H         8.8612   13.0952   24.3628  H     
49   H         9.1698   11.4241   24.8790  H     
50   H         8.2675   12.5067   25.9576  H     
51   H         0.1994    5.7217   26.2985  H     
52   H        -0.4693    5.2150   24.7346  H     
53   H        -0.9214    6.7885   25.4270  H     
54   H        -0.1036    7.9259   23.2116  H     
55   H         0.3712    6.3374   22.5712  H     
56   H         1.5558    7.6507   22.6625  H     
@<TRIPOS>BOND
     1    1    2 1
     2    1    3 2
     3    2    5 1
     4    2    6 2
     5    3    4 1
     6    3   12 1
     7    4    5 1
     8    4   17 1
     9    5    7 2
    10    6    9 1
    11    6   18 1
    12    7   14 1
    13    8   10 2
    14    8   11 1
    15    8   19 1
    16    9   14 2
    17   10   15 1
    18   10   20 1
    19   11   16 2
    20   11   21 1
    21   12   13 1
    22   13   15 2
    23   13   16 1
    24   17   22 1
    25   19   25 1
    26   20   27 1
    27   21   26 1
    28   22   23 1
    29   23   24 1
    30   24   28 1
    31   24   29 1
    32   12   30 1
    33   12   31 1
    34   14   32 1
    35   15   33 1
    36   16   34 1
    37   17   35 1
    38   17   36 1
    39   18   37 1
    40   18   38 1
    41   22   39 1
    42   22   40 1
    43   24   41 1
    44   25   42 1
    45   25   43 1
    46   25   44 1
    47   26   45 1
    48   26   46 1
    49   26   47 1
    50   27   48 1
    51   27   49 1
    52   27   50 1
    53   28   51 1
    54   28   52 1
    55   28   53 1
    56   29   54 1
    57   29   55 1
    58   29   56 1
@<TRIPOS>PROPERTY_DATA
  Total_Score	| 9.7447
  Crash		| -0.7279
  Polar		| 1.2334
  FragIndex	| 1
  FragRMSD	| 0.408

