@<TRIPOS>MOLECULE
BindingDB_50165270
 51 53 0 0 0
SMALL
NO_CHARGES


@<TRIPOS>ATOM
1    C         0.5697   10.4564   25.8420  C     
2    C        -0.3634   11.1603   25.0921  C     
3    N         0.2519   11.6791   24.0291  N     
4    N         1.7579   10.5508   25.2191  N     
5    C         1.5488   11.3090   24.1061  C     
6    N         0.2054    9.8129   26.9777  N     
7    N        -2.0281   10.4996   26.6482  N     
8    C        -1.7073   11.1635   25.5008  C     
9    C        -1.0931    9.8410   27.3870  C     
10   C         5.7670   14.0382   24.5803  C     
11   C         4.4603   14.5749   24.5705  C     
12   C         6.0025   12.7447   24.0627  C     
13   C         2.4933   11.6835   23.0285  C     
14   C         3.6183   12.5184   23.5189  C     
15   C         3.9843    8.1948   23.0501  C     
16   C         3.7635    8.3563   21.8888  C     
17   C         4.9335   12.0068   23.5171  C     
18   C         3.4000   13.8236   24.0219  C     
19   N        -2.6531   11.7705   24.7695  N     
20   F        -1.4411    9.2261   28.4793  F     
21   C         2.9528    9.9075   25.7118  C     
22   O         6.7950   14.7158   25.1771  O     
23   O         4.2156   15.8316   25.0596  O     
24   O         7.2383   12.1768   24.2352  O     
25   C         4.2449    8.0185   24.3819  C     
26   C         7.3884   15.7237   24.3454  C     
27   C         7.9036   11.7658   23.0326  C     
28   C         4.1342   15.8944   26.4942  C     
29   C         3.0477    8.3956   25.3175  C     
30   H         2.8390   10.7570   22.5660  H     
31   H         1.9713   12.2481   22.2523  H     
32   H         3.5779    8.4748   20.9914  H     
33   H         5.1091   11.0668   23.1608  H     
34   H         2.4575   14.2235   24.0149  H     
35   H        -3.5841   11.7069   25.0277  H     
36   H        -2.4125   12.2400   23.9570  H     
37   H         3.8356   10.4510   25.3678  H     
38   H         2.9699    9.9906   26.8024  H     
39   H         4.5060    6.9655   24.5335  H     
40   H         5.1345    8.6077   24.6089  H     
41   H         7.7896   15.2985   23.4232  H     
42   H         8.2113   16.1703   24.9042  H     
43   H         6.6739   16.5123   24.1032  H     
44   H         7.4152   10.9044   22.5750  H     
45   H         8.9201   11.4710   23.3023  H     
46   H         7.9545   12.5819   22.3093  H     
47   H         3.3149   15.2770   26.8700  H     
48   H         3.9429   16.9292   26.7827  H     
49   H         5.0684   15.5814   26.9640  H     
50   H         3.1458    7.8093   26.2373  H     
51   H         2.0952    8.0738   24.8815  H     
@<TRIPOS>BOND
     1    1    2 1
     2    1    4 1
     3    1    6 2
     4    2    3 1
     5    2    8 2
     6    3    5 2
     7    4    5 1
     8    4   21 1
     9    5   13 1
    10    6    9 1
    11    7    8 1
    12    7    9 2
    13    8   19 1
    14    9   20 1
    15   10   11 1
    16   10   12 2
    17   10   22 1
    18   11   18 2
    19   11   23 1
    20   12   17 1
    21   12   24 1
    22   13   14 1
    23   14   17 2
    24   14   18 1
    25   15   16 3
    26   15   25 1
    27   21   29 1
    28   22   26 1
    29   23   28 1
    30   24   27 1
    31   25   29 1
    32   13   30 1
    33   13   31 1
    34   16   32 1
    35   17   33 1
    36   18   34 1
    37   19   35 1
    38   19   36 1
    39   21   37 1
    40   21   38 1
    41   25   39 1
    42   25   40 1
    43   26   41 1
    44   26   42 1
    45   26   43 1
    46   27   44 1
    47   27   45 1
    48   27   46 1
    49   28   47 1
    50   28   48 1
    51   28   49 1
    52   29   50 1
    53   29   51 1
@<TRIPOS>PROPERTY_DATA
  Total_Score	| 8.7662
  Crash		| -0.7404
  Polar		| 1.1485
  FragIndex	| 1
  FragRMSD	| 0.412

