@<TRIPOS>MOLECULE
BindingDB_15381
 51 53 0 0 0
SMALL
NO_CHARGES


@<TRIPOS>ATOM
1    C        -1.6416   11.0774   25.5038  C     
2    C        -1.0724    9.7531   27.3955  C     
3    N         0.2268    9.6869   26.9879  N     
4    N        -1.9874   10.4380   26.6530  N     
5    N        -2.5601   11.7227   24.7663  N     
6    C        -0.3028   11.0272   25.0887  C     
7    C         0.6190   10.3143   25.8463  C     
8    C         1.6257   11.1874   24.1249  C     
9    N         0.3295   11.5472   24.0375  N     
10   N         1.8110   10.4054   25.2285  N     
11   C         3.0066    9.7539   25.7017  C     
12   C         2.9734    8.1943   25.5925  C     
13   C         3.9878    7.5743   24.5917  C     
14   C         2.5933   11.6040   23.0813  C     
15   C         3.6723   12.5005   23.5970  C     
16   C         4.9930   11.9968   23.6460  C     
17   C         6.0544   12.7544   24.1637  C     
18   C         3.4408   13.8272   24.0481  C     
19   C         5.8154   14.0664   24.6212  C     
20   C         4.5068   14.5975   24.5861  C     
21   O         7.2910   12.1884   24.3405  O     
22   C         8.0187   11.9518   23.1247  C     
23   Cl        1.8958   14.5393   23.9709  Cl    
24   O         6.8514   14.7669   25.1814  O     
25   C         7.4511   15.7285   24.2994  C     
26   O         4.2953   15.8749   25.0410  O     
27   C         4.1343   15.9674   26.4690  C     
28   C         3.7373    7.8839   23.2805  C     
29   C         3.5303    8.1382   22.1308  C     
30   F        -1.4454    9.1507   28.4878  F     
31   H        -2.2937   12.1624   23.9454  H     
32   H        -3.4932   11.7153   25.0257  H     
33   H         3.8798   10.1231   25.1719  H     
34   H         3.1520   10.0371   26.7478  H     
35   H         3.2013    7.7792   26.5791  H     
36   H         1.9675    7.8520   25.3328  H     
37   H         4.9975    7.8995   24.8440  H     
38   H         3.9580    6.4856   24.6822  H     
39   H         2.9904   10.6873   22.6345  H     
40   H         2.0760   12.1352   22.2797  H     
41   H         5.1852   11.0395   23.3436  H     
42   H         7.5374   11.1786   22.5222  H     
43   H         9.0190   11.6060   23.3864  H     
44   H         8.1143   12.8650   22.5356  H     
45   H         7.8168   15.2741   23.3743  H     
46   H         8.3032   16.1693   24.8171  H     
47   H         6.7463   16.5268   24.0553  H     
48   H         3.2923   15.3672   26.8242  H     
49   H         3.9347   17.0107   26.7148  H     
50   H         5.0433   15.6617   26.9924  H     
51   H         3.3755    8.3164   21.2393  H     
@<TRIPOS>BOND
     1    1    4 1
     2    1    5 1
     3    1    6 2
     4    2    3 1
     5    2    4 2
     6    2   30 1
     7    3    7 2
     8    6    7 1
     9    6    9 1
    10    7   10 1
    11    8    9 2
    12    8   10 1
    13    8   14 1
    14   10   11 1
    15   11   12 1
    16   12   13 1
    17   13   28 1
    18   14   15 1
    19   15   16 2
    20   15   18 1
    21   16   17 1
    22   17   19 2
    23   17   21 1
    24   18   20 2
    25   18   23 1
    26   19   20 1
    27   19   24 1
    28   20   26 1
    29   21   22 1
    30   24   25 1
    31   26   27 1
    32   28   29 3
    33    5   31 1
    34    5   32 1
    35   11   33 1
    36   11   34 1
    37   12   35 1
    38   12   36 1
    39   13   37 1
    40   13   38 1
    41   14   39 1
    42   14   40 1
    43   16   41 1
    44   22   42 1
    45   22   43 1
    46   22   44 1
    47   25   45 1
    48   25   46 1
    49   25   47 1
    50   27   48 1
    51   27   49 1
    52   27   50 1
    53   29   51 1
@<TRIPOS>PROPERTY_DATA
  Total_Score	| 9.1363
  Crash		| -0.8971
  Polar		| 1.2575
  FragIndex	| 1
  FragRMSD	| 0.355

