@<TRIPOS>MOLECULE
BindingDB_14995
 75 78 0 0 0
SMALL
NO_CHARGES


@<TRIPOS>ATOM
1    C        23.0191    6.3234   91.6763  C     
2    C        22.4142    6.0841   90.3999  C     
3    C        21.5454    7.0663   89.8444  C     
4    C        21.3179    8.3163   90.4554  C     
5    C        21.9789    8.5770   91.6710  C     
6    C        22.7975    7.6027   92.2643  C     
7    N        22.5133    4.8604   89.7559  N     
8    C        22.7200    4.6136   88.4591  C     
9    O        22.8531    5.5591   87.6876  O     
10   C        22.8510    3.3151   87.9266  C     
11   C        23.3521    0.9043   88.1200  C     
12   C        23.0583    0.7122   86.7619  C     
13   C        22.7222    1.8177   85.9535  C     
14   C        22.6022    3.0928   86.5395  C     
15   C        23.2727    2.1922   88.6973  C     
16   C        23.4727    1.3062   83.7567  C     
17   C        24.2401    0.6091   81.5600  C     
18   C        25.5695    0.7441   81.9876  C     
19   C        25.8187    1.1624   83.3049  C     
20   N        24.7785    1.4343   84.1299  N     
21   C        23.1522    0.8815   82.4335  C     
22   O        22.4580    1.6821   84.6136  O     
23   C        20.3661    9.2912   89.8475  C     
24   F        20.4830   10.5628   90.3504  F     
25   F        20.5452    9.3974   88.4897  F     
26   F        19.0847    8.8653   90.0830  F     
27   C        21.8103    0.7579   81.9482  C     
28   C        19.4188    0.3860   82.1898  C     
29   C        20.6987    0.4428   82.7679  C     
30   N        21.5668    0.9335   80.6165  N     
31   N        19.2691    0.5792   80.8551  N     
32   C        20.3304    0.8396   80.0516  C     
33   N        20.1170    0.9674   78.7245  N     
34   C        21.1448    1.1711   77.7647  C     
35   F        23.6758    2.3038   89.9359  F     
36   N        23.8050    5.4088   92.3639  N     
37   C        23.8415    5.3984   93.8160  C     
38   C        24.6437    4.4283   91.6999  C     
39   C        26.1111    4.3654   92.2186  C     
40   C        27.1519    3.7726   91.2179  C     
41   N        27.2995    4.3564   89.8338  N     
42   C        26.5126    3.6776   88.7540  C     
43   C        27.1948    5.8424   89.7659  C     
44   H        21.0319    6.8513   88.9873  H     
45   H        21.8534    9.4681   92.1588  H     
46   H        23.2525    7.8534   93.1470  H     
47   H        22.5198    4.0896   90.3401  H     
48   H        23.6518    0.1028   88.6838  H     
49   H        23.1376   -0.2206   86.3524  H     
50   H        22.3209    3.8664   85.9249  H     
51   H        24.0750    0.3012   80.5983  H     
52   H        26.3445    0.5405   81.3547  H     
53   H        26.7742    1.2759   83.6460  H     
54   H        18.6019    0.1755   82.7731  H     
55   H        20.8127    0.2294   83.7614  H     
56   H        19.2014    0.8790   78.3952  H     
57   H        21.6212    2.1402   77.9263  H     
58   H        20.7107    1.1498   76.7665  H     
59   H        21.8953    0.3805   77.8319  H     
60   H        24.7068    5.9660   94.1642  H     
61   H        23.9206    4.3786   94.2006  H     
62   H        22.9348    5.8238   94.2578  H     
63   H        24.1622    3.4432   91.8035  H     
64   H        24.7282    4.6590   90.6451  H     
65   H        26.4380    5.3701   92.5139  H     
66   H        26.1266    3.7445   93.1240  H     
67   H        28.1289    3.8911   91.6927  H     
68   H        26.9868    2.6923   91.1580  H     
69   H        28.2725    4.1567   89.5839  H     
70   H        26.6448    2.5922   88.8099  H     
71   H        26.8736    4.0073   87.7719  H     
72   H        25.4499    3.9191   88.8125  H     
73   H        26.1644    6.1760   89.9317  H     
74   H        27.5175    6.1992   88.7800  H     
75   H        27.8466    6.3044   90.5197  H     
@<TRIPOS>BOND
     1    1    2 1
     2    1    6 2
     3    1   36 1
     4    2    3 2
     5    2    7 1
     6    3    4 1
     7    4    5 2
     8    4   23 1
     9    5    6 1
    10    7    8 am
    11    8    9 2
    12    8   10 1
    13   10   14 1
    14   10   15 2
    15   11   12 2
    16   11   15 1
    17   12   13 1
    18   13   14 2
    19   13   22 1
    20   15   35 1
    21   16   20 2
    22   16   21 1
    23   16   22 1
    24   17   18 1
    25   17   21 2
    26   18   19 2
    27   19   20 1
    28   21   27 1
    29   23   24 1
    30   23   25 1
    31   23   26 1
    32   27   29 2
    33   27   30 1
    34   28   29 1
    35   28   31 2
    36   30   32 2
    37   31   32 1
    38   32   33 1
    39   33   34 1
    40   36   37 1
    41   36   38 1
    42   38   39 1
    43   39   40 1
    44   40   41 1
    45   41   42 1
    46   41   43 1
    47    3   44 1
    48    5   45 1
    49    6   46 1
    50    7   47 1
    51   11   48 1
    52   12   49 1
    53   14   50 1
    54   17   51 1
    55   18   52 1
    56   19   53 1
    57   28   54 1
    58   29   55 1
    59   33   56 1
    60   34   57 1
    61   34   58 1
    62   34   59 1
    63   37   60 1
    64   37   61 1
    65   37   62 1
    66   38   63 1
    67   38   64 1
    68   39   65 1
    69   39   66 1
    70   40   67 1
    71   40   68 1
    72   41   69 1
    73   42   70 1
    74   42   71 1
    75   42   72 1
    76   43   73 1
    77   43   74 1
    78   43   75 1
@<TRIPOS>PROPERTY_DATA
  Total_Score	| 12.1757
  Crash		| -2.8924
  Polar		| 3.5934
  FragIndex	| 1
  FragRMSD	| 1.169

