@<TRIPOS>MOLECULE
BindingDB_14978
 50 53 0 0 0
SMALL
NO_CHARGES


@<TRIPOS>ATOM
1    C        22.6243    6.5500   91.2139  C     
2    C        22.3830    6.2176   89.8664  C     
3    C        21.6770    7.1503   89.0711  C     
4    C        21.2195    8.3678   89.6103  C     
5    C        21.4481    8.6975   90.9631  C     
6    C        22.1866    7.7829   91.7529  C     
7    N        22.7245    4.9496   89.4460  N     
8    C        22.8773    4.4872   88.2062  C     
9    O        22.9428    5.2867   87.2797  O     
10   C        22.9764    3.1185   87.9173  C     
11   C        23.3726    0.7777   88.5685  C     
12   C        23.1049    0.3271   87.2559  C     
13   C        22.7818    1.2835   86.2654  C     
14   C        22.7132    2.6504   86.6022  C     
15   C        23.2956    2.1451   88.8963  C     
16   C        23.1920   -1.1290   86.9571  C     
17   C        23.4694    1.0475   84.0229  C     
18   C        24.1895    1.2184   81.7139  C     
19   C        25.5238    1.3224   82.1358  C     
20   C        25.8055    1.2861   83.5057  C     
21   N        24.7873    1.1469   84.3848  N     
22   C        23.1191    1.0769   82.6416  C     
23   C        21.7688    1.0070   82.1525  C     
24   C        20.2589    1.4254   80.3301  C     
25   C        19.3960    0.4644   82.3071  C     
26   C        20.6753    0.4840   82.8893  C     
27   N        19.2144    0.9281   81.0399  N     
28   N        21.4948    1.4546   80.8860  N     
29   O        22.4813    0.9251   84.9766  O     
30   C        20.8777    9.9680   91.4941  C     
31   F        21.1813   10.2343   92.8079  F     
32   F        21.3319   11.0321   90.7494  F     
33   F        19.5056    9.9267   91.4040  F     
34   H        23.1110    5.8875   91.8232  H     
35   H        21.4368    6.9397   88.1047  H     
36   H        20.6801    8.9991   89.0114  H     
37   H        22.3751    7.9808   92.7366  H     
38   H        22.8128    4.2919   90.1515  H     
39   H        23.6316    0.1070   89.3011  H     
40   H        22.4523    3.3097   85.8639  H     
41   H        23.5180    2.4223   89.8569  H     
42   H        24.2259   -1.4525   87.0753  H     
43   H        22.8772   -1.3721   85.9398  H     
44   H        22.5626   -1.6991   87.6451  H     
45   H        24.0102    1.2245   80.7049  H     
46   H        26.2839    1.4152   81.4584  H     
47   H        26.7632    1.3593   83.8534  H     
48   H        20.1165    1.7748   79.3777  H     
49   H        18.5965    0.0836   82.8244  H     
50   H        20.7947    0.1011   83.8294  H     
@<TRIPOS>BOND
     1    1    2 1
     2    1    6 2
     3    2    3 2
     4    2    7 1
     5    3    4 1
     6    4    5 2
     7    5    6 1
     8    5   30 1
     9    7    8 am
    10    8    9 2
    11    8   10 1
    12   10   14 1
    13   10   15 2
    14   11   12 2
    15   11   15 1
    16   12   13 1
    17   12   16 1
    18   13   14 2
    19   13   29 1
    20   17   21 2
    21   17   22 1
    22   17   29 1
    23   18   19 1
    24   18   22 2
    25   19   20 2
    26   20   21 1
    27   22   23 1
    28   23   26 1
    29   23   28 2
    30   24   27 2
    31   24   28 1
    32   25   26 2
    33   25   27 1
    34   30   31 1
    35   30   32 1
    36   30   33 1
    37    1   34 1
    38    3   35 1
    39    4   36 1
    40    6   37 1
    41    7   38 1
    42   11   39 1
    43   14   40 1
    44   15   41 1
    45   16   42 1
    46   16   43 1
    47   16   44 1
    48   18   45 1
    49   19   46 1
    50   20   47 1
    51   24   48 1
    52   25   49 1
    53   26   50 1
@<TRIPOS>PROPERTY_DATA
  Total_Score	| 8.0929
  Crash		| -2.7079
  Polar		| 2.2260
  FragIndex	| 1
  FragRMSD	| 0.491

