@<TRIPOS>MOLECULE
BindingDB_14983
 68 72 0 0 0
SMALL
NO_CHARGES


@<TRIPOS>ATOM
1    C        23.3725    6.2590   91.4906  C     
2    C        22.6589    6.0753   90.2723  C     
3    C        21.6806    7.0251   89.8866  C     
4    C        21.4073    8.1773   90.6618  C     
5    C        22.1212    8.3426   91.8703  C     
6    C        23.0711    7.3913   92.2854  C     
7    N        22.7907    4.8718   89.6244  N     
8    C        22.7701    4.5676   88.3327  C     
9    O        22.6697    5.4789   87.5203  O     
10   C        22.9204    3.2449   87.8670  C     
11   C        23.3835    0.8514   88.2570  C     
12   C        23.1346    0.5413   86.9013  C     
13   C        22.8132    1.6032   86.0151  C     
14   C        22.6979    2.9192   86.5036  C     
15   C        23.2767    2.1708   88.7310  C     
16   C        23.2143   -0.8844   86.4789  C     
17   C        23.4562    1.1835   83.7607  C     
18   C        24.1613    0.6265   81.5124  C     
19   C        25.4997    0.8525   81.8789  C     
20   C        25.7866    1.2364   83.1949  C     
21   N        24.7688    1.3890   84.0704  N     
22   C        23.0944    0.7968   82.4346  C     
23   C        21.7367    0.6559   81.9719  C     
24   C        20.2500    0.7227   80.0775  C     
25   C        19.3246    0.4333   82.2357  C     
26   C        20.6063    0.4306   82.8033  C     
27   N        19.1827    0.5739   80.8958  N     
28   N        21.4887    0.7752   80.6315  N     
29   O        22.4878    1.4071   84.7042  O     
30   C        20.3806    9.1563   90.1933  C     
31   F        20.2241   10.2478   91.0137  F     
32   F        20.7117    9.6360   88.9492  F     
33   F        19.1504    8.5442   90.1025  F     
34   C        26.7641    5.5103   92.2155  C     
35   C        25.6163    5.2954   91.1970  C     
36   C        24.1881    4.5225   93.0466  C     
37   C        25.3857    4.6757   94.0167  C     
38   N        24.3501    5.3859   91.8953  N     
39   O        26.6461    4.5861   93.3154  O     
40   N        20.0198    0.8207   78.7499  N     
41   C        21.0384    0.9263   77.7638  C     
42   H        21.1240    6.8574   89.0463  H     
43   H        21.9665    9.1621   92.4650  H     
44   H        23.5822    7.5600   93.1566  H     
45   H        22.9832    4.1317   90.2137  H     
46   H        23.6268    0.1060   88.9207  H     
47   H        22.4101    3.6538   85.8403  H     
48   H        23.4625    2.3283   89.7294  H     
49   H        24.2492   -1.2249   86.5491  H     
50   H        22.8640   -1.0451   85.4593  H     
51   H        22.5936   -1.5021   87.1284  H     
52   H        23.9755    0.3472   80.5485  H     
53   H        26.2528    0.7294   81.1966  H     
54   H        26.7508    1.3967   83.4947  H     
55   H        18.4989    0.3118   82.8221  H     
56   H        20.6872    0.2223   83.7967  H     
57   H        27.7272    5.3352   91.7245  H     
58   H        26.7521    6.5445   92.5849  H     
59   H        25.7192    6.0432   90.4049  H     
60   H        25.7191    4.3045   90.7465  H     
61   H        24.1738    3.4867   92.6820  H     
62   H        23.2497    4.6901   93.5869  H     
63   H        25.3079    5.6325   94.5474  H     
64   H        25.3567    3.8743   94.7595  H     
65   H        19.0985    0.7956   78.4425  H     
66   H        21.6372    1.8290   77.9158  H     
67   H        20.5732    0.9790   76.7773  H     
68   H        21.6794    0.0394   77.7927  H     
@<TRIPOS>BOND
     1    1    2 1
     2    1    6 2
     3    1   38 1
     4    2    3 2
     5    2    7 1
     6    3    4 1
     7    4    5 2
     8    4   30 1
     9    5    6 1
    10    7    8 am
    11    8    9 2
    12    8   10 1
    13   10   14 1
    14   10   15 2
    15   11   12 2
    16   11   15 1
    17   12   13 1
    18   12   16 1
    19   13   14 2
    20   13   29 1
    21   17   21 2
    22   17   22 1
    23   17   29 1
    24   18   19 1
    25   18   22 2
    26   19   20 2
    27   20   21 1
    28   22   23 1
    29   23   26 1
    30   23   28 2
    31   24   27 2
    32   24   28 1
    33   24   40 1
    34   25   26 2
    35   25   27 1
    36   30   31 1
    37   30   32 1
    38   30   33 1
    39   34   35 1
    40   34   39 1
    41   35   38 1
    42   36   37 1
    43   36   38 1
    44   37   39 1
    45   40   41 1
    46    3   42 1
    47    5   43 1
    48    6   44 1
    49    7   45 1
    50   11   46 1
    51   14   47 1
    52   15   48 1
    53   16   49 1
    54   16   50 1
    55   16   51 1
    56   18   52 1
    57   19   53 1
    58   20   54 1
    59   25   55 1
    60   26   56 1
    61   34   57 1
    62   34   58 1
    63   35   59 1
    64   35   60 1
    65   36   61 1
    66   36   62 1
    67   37   63 1
    68   37   64 1
    69   40   65 1
    70   41   66 1
    71   41   67 1
    72   41   68 1
@<TRIPOS>PROPERTY_DATA
  Total_Score	| 12.5646
  Crash		| -1.9106
  Polar		| 3.1946
  FragIndex	| 1
  FragRMSD	| 0.589

