@<TRIPOS>MOLECULE
BindingDB_14991
 67 71 0 0 0
SMALL
NO_CHARGES


@<TRIPOS>ATOM
1    C        23.4573    6.1996   91.4709  C     
2    C        22.6806    6.0076   90.2960  C     
3    C        21.7244    6.9904   89.9509  C     
4    C        21.5132    8.1534   90.7393  C     
5    C        22.3096    8.3175   91.8986  C     
6    C        23.2579    7.3563   92.2614  C     
7    N        22.8093    4.8102   89.6242  N     
8    C        22.6739    4.5396   88.3273  C     
9    O        22.4914    5.4793   87.5642  O     
10   C        22.8166    3.2406   87.7995  C     
11   C        23.1756    0.8136   88.0745  C     
12   C        23.0722    0.6119   86.6836  C     
13   C        22.8252    1.7165   85.8393  C     
14   C        22.7065    3.0019   86.4029  C     
15   C        23.0504    2.1064   88.6209  C     
16   C        23.5241    1.2301   83.6136  C     
17   C        24.2224    0.4635   81.4173  C     
18   C        25.5629    0.6978   81.7693  C     
19   C        25.8491    1.2172   83.0412  C     
20   N        24.8352    1.4620   83.9041  N     
21   C        23.1647    0.7427   82.3217  C     
22   O        22.5458    1.5987   84.5002  O     
23   C        20.4476    9.1313   90.3677  C     
24   F        20.4154   10.2646   91.1507  F     
25   F        20.5999    9.5620   89.0701  F     
26   F        19.2085    8.5442   90.4734  F     
27   C        26.6838    4.4654   93.3989  C     
28   C        26.8187    5.4110   92.1771  C     
29   C        25.6601    5.1814   91.1754  C     
30   C        24.1583    4.4460   93.0120  C     
31   C        25.2867    4.6010   94.0582  C     
32   N        24.3918    5.2952   91.8651  N     
33   C        21.8093    0.5959   81.8888  C     
34   C        19.4230    0.3319   82.2499  C     
35   C        20.7255    0.3695   82.7714  C     
36   N        21.5241    0.7016   80.5573  N     
37   N        19.2309    0.4638   80.9156  N     
38   C        20.2610    0.6341   80.0533  C     
39   N        19.9698    0.7084   78.7385  N     
40   C        20.9170    0.8295   77.6866  C     
41   Cl       23.2229   -0.9566   86.0659  Cl    
42   H        21.1230    6.8398   89.1379  H     
43   H        22.1869    9.1284   92.5065  H     
44   H        23.8191    7.4999   93.1100  H     
45   H        23.1033    4.0701   90.1740  H     
46   H        23.3306    0.0185   88.7002  H     
47   H        22.5153    3.7768   85.7628  H     
48   H        23.1301    2.2019   89.6347  H     
49   H        24.0310    0.0745   80.4915  H     
50   H        26.3217    0.5017   81.1099  H     
51   H        26.8118    1.4123   83.3250  H     
52   H        26.8323    3.4307   93.0754  H     
53   H        27.4553    4.7025   94.1353  H     
54   H        26.7991    6.4499   92.5213  H     
55   H        27.7776    5.2371   91.6818  H     
56   H        25.7538    5.9012   90.3562  H     
57   H        25.7405    4.1844   90.7348  H     
58   H        24.1203    3.4104   92.6670  H     
59   H        23.2027    4.6659   93.5026  H     
60   H        25.1706    3.8367   94.8288  H     
61   H        25.2034    5.5817   94.5327  H     
62   H        18.6222    0.1892   82.8644  H     
63   H        20.8608    0.2187   83.7726  H     
64   H        19.0357    0.6590   78.4828  H     
65   H        21.4729    1.7641   77.7799  H     
66   H        20.3812    0.8306   76.7365  H     
67   H        21.6092   -0.0145   77.6959  H     
@<TRIPOS>BOND
     1    1    2 1
     2    1    6 2
     3    1   32 1
     4    2    3 2
     5    2    7 1
     6    3    4 1
     7    4    5 2
     8    4   23 1
     9    5    6 1
    10    7    8 am
    11    8    9 2
    12    8   10 1
    13   10   14 1
    14   10   15 2
    15   11   12 2
    16   11   15 1
    17   12   13 1
    18   12   41 1
    19   13   14 2
    20   13   22 1
    21   16   20 2
    22   16   21 1
    23   16   22 1
    24   17   18 1
    25   17   21 2
    26   18   19 2
    27   19   20 1
    28   21   33 1
    29   23   24 1
    30   23   25 1
    31   23   26 1
    32   27   28 1
    33   27   31 1
    34   28   29 1
    35   29   32 1
    36   30   31 1
    37   30   32 1
    38   33   35 2
    39   33   36 1
    40   34   35 1
    41   34   37 2
    42   36   38 2
    43   37   38 1
    44   38   39 1
    45   39   40 1
    46    3   42 1
    47    5   43 1
    48    6   44 1
    49    7   45 1
    50   11   46 1
    51   14   47 1
    52   15   48 1
    53   17   49 1
    54   18   50 1
    55   19   51 1
    56   27   52 1
    57   27   53 1
    58   28   54 1
    59   28   55 1
    60   29   56 1
    61   29   57 1
    62   30   58 1
    63   30   59 1
    64   31   60 1
    65   31   61 1
    66   34   62 1
    67   35   63 1
    68   39   64 1
    69   40   65 1
    70   40   66 1
    71   40   67 1
@<TRIPOS>PROPERTY_DATA
  Total_Score	| 13.0830
  Crash		| -1.8553
  Polar		| 3.1486
  FragIndex	| 1
  FragRMSD	| 0.614

