@<TRIPOS>MOLECULE
BindingDB_14989
 67 71 0 0 0
SMALL
NO_CHARGES


@<TRIPOS>ATOM
1    C        23.3111    6.3357   91.5001  C     
2    C        22.6062    6.1343   90.2774  C     
3    C        21.6672    7.1052   89.8697  C     
4    C        21.4365    8.3005   90.6009  C     
5    C        22.1400    8.4657   91.8222  C     
6    C        23.0401    7.4949   92.2727  C     
7    N        22.7688    4.9285   89.6331  N     
8    C        22.6179    4.6115   88.3439  C     
9    O        22.4706    5.5318   87.5410  O     
10   C        22.7273    3.3002   87.8463  C     
11   C        23.0114    0.8678   88.1670  C     
12   C        22.9080    0.6497   86.7861  C     
13   C        22.6972    1.7377   85.9151  C     
14   C        22.6056    3.0365   86.4531  C     
15   C        22.9199    2.1741   88.6909  C     
16   C        23.4436    1.2423   83.7002  C     
17   C        24.2375    0.6099   81.4951  C     
18   C        25.5623    0.8008   81.9196  C     
19   C        25.7959    1.2318   83.2325  C     
20   N        24.7438    1.4350   84.0577  N     
21   C        23.1438    0.8395   82.3628  C     
22   O        22.4357    1.5689   84.5814  O     
23   C        20.4485    9.2986   90.1101  C     
24   F        20.5283   10.5269   90.7224  F     
25   F        20.5982    9.5404   88.7626  F     
26   F        19.1794    8.8174   90.3198  F     
27   C        26.6254    4.5257   93.3296  C     
28   C        26.7286    5.4395   92.0847  C     
29   C        25.4881    5.2700   91.1600  C     
30   C        24.0751    4.6525   93.0966  C     
31   C        25.2788    4.7318   94.0683  C     
32   N        24.2752    5.4730   91.9201  N     
33   C        21.8060    0.7145   81.8519  C     
34   C        19.4091    0.3794   82.0617  C     
35   C        20.6781    0.4337   82.6610  C     
36   N        21.5901    0.8609   80.5125  N     
37   N        19.2829    0.5454   80.7257  N     
38   C        20.3560    0.7744   79.9320  C     
39   N        20.1342    0.8824   78.6041  N     
40   C        21.1520    1.0243   77.6219  C     
41   H        21.1087    6.9516   89.0286  H     
42   H        21.9804    9.2947   92.4002  H     
43   H        23.5369    7.6497   93.1536  H     
44   H        23.0765    4.2070   90.1987  H     
45   H        23.1337    0.0712   88.8002  H     
46   H        22.9518   -0.2997   86.4124  H     
47   H        22.4279    3.7996   85.7918  H     
48   H        22.9849    2.2810   89.7059  H     
49   H        24.0828    0.3034   80.5287  H     
50   H        26.3423    0.6403   81.2812  H     
51   H        26.7436    1.4039   83.5641  H     
52   H        26.7102    3.4771   93.0199  H     
53   H        27.4484    4.7400   94.0124  H     
54   H        26.7962    6.4845   92.4100  H     
55   H        27.6404    5.1981   91.5318  H     
56   H        25.5797    5.9869   90.3378  H     
57   H        25.4973    4.2694   90.7265  H     
58   H        23.9629    3.6128   92.7636  H     
59   H        23.1645    4.9164   93.6410  H     
60   H        25.1717    3.9622   94.8364  H     
61   H        25.2767    5.7072   94.5596  H     
62   H        18.5782    0.1972   82.6281  H     
63   H        20.7635    0.2490   83.6621  H     
64   H        19.2172    0.8207   78.2908  H     
65   H        21.7058    1.9557   77.7750  H     
66   H        20.6881    1.0482   76.6310  H     
67   H        21.8409    0.1741   77.6639  H     
@<TRIPOS>BOND
     1    1    2 1
     2    1    6 2
     3    1   32 1
     4    2    3 2
     5    2    7 1
     6    3    4 1
     7    4    5 2
     8    4   23 1
     9    5    6 1
    10    7    8 am
    11    8    9 2
    12    8   10 1
    13   10   14 1
    14   10   15 2
    15   11   12 2
    16   11   15 1
    17   12   13 1
    18   13   14 2
    19   13   22 1
    20   16   20 2
    21   16   21 1
    22   16   22 1
    23   17   18 1
    24   17   21 2
    25   18   19 2
    26   19   20 1
    27   21   33 1
    28   23   24 1
    29   23   25 1
    30   23   26 1
    31   27   28 1
    32   27   31 1
    33   28   29 1
    34   29   32 1
    35   30   31 1
    36   30   32 1
    37   33   35 2
    38   33   36 1
    39   34   35 1
    40   34   37 2
    41   36   38 2
    42   37   38 1
    43   38   39 1
    44   39   40 1
    45    3   41 1
    46    5   42 1
    47    6   43 1
    48    7   44 1
    49   11   45 1
    50   12   46 1
    51   14   47 1
    52   15   48 1
    53   17   49 1
    54   18   50 1
    55   19   51 1
    56   27   52 1
    57   27   53 1
    58   28   54 1
    59   28   55 1
    60   29   56 1
    61   29   57 1
    62   30   58 1
    63   30   59 1
    64   31   60 1
    65   31   61 1
    66   34   62 1
    67   35   63 1
    68   39   64 1
    69   40   65 1
    70   40   66 1
    71   40   67 1
@<TRIPOS>PROPERTY_DATA
  Total_Score	| 12.7185
  Crash		| -2.0684
  Polar		| 3.1358
  FragIndex	| 1
  FragRMSD	| 0.624

