@<TRIPOS>MOLECULE
BindingDB_50207847
 61 64 0 0 0
SMALL
NO_CHARGES


@<TRIPOS>ATOM
1    C        25.9481    4.5128   89.5458  C     
2    N        25.7999    3.4424   88.7197  N     
3    C        24.7674    3.3364   87.8465  C     
4    C        23.8200    4.3735   87.7764  C     
5    C        23.9768    5.4653   88.6458  C     
6    N        25.0294    5.5103   89.4981  N     
7    C        24.6124    2.1555   87.0999  C     
8    C        25.3175    1.9959   85.8842  C     
9    C        25.1278    0.8421   85.1038  C     
10   C        24.2386   -0.1516   85.5577  C     
11   N        23.5891    0.0147   86.7347  N     
12   C        23.7446    1.1048   87.5290  C     
13   O        22.9982    1.0761   88.6894  O     
14   C        23.6648    1.3810   89.8539  C     
15   C        23.4589    2.6707   90.3761  C     
16   C        24.1576    3.1746   91.5054  C     
17   C        25.0306    2.2695   92.1624  C     
18   C        25.1798    0.9407   91.7031  C     
19   C        24.4908    0.4791   90.5588  C     
20   C        24.0168    4.5170   91.9370  C     
21   O        24.7814    5.0759   92.7240  O     
22   N        23.0745    5.2804   91.3753  N     
23   C        22.7042    6.5569   91.6173  C     
24   C        21.8777    7.1773   90.6601  C     
25   C        21.3633    8.4811   90.8619  C     
26   C        21.6805    9.1340   92.0750  C     
27   C        22.5251    8.5371   93.0286  C     
28   C        23.0227    7.2317   92.8102  C     
29   C        20.4810    9.1029   89.8234  C     
30   C        18.9860    8.9878   90.2305  C     
31   C        20.8872   10.5666   89.4860  C     
32   C        24.5880   -0.9318   90.1120  C     
33   N        26.9284    4.6111   90.4706  N     
34   C        27.8618    3.5819   90.7544  C     
35   H        23.0183    4.3373   87.1324  H     
36   H        23.3056    6.2339   88.6405  H     
37   H        25.9664    2.7201   85.5601  H     
38   H        25.6227    0.7338   84.2174  H     
39   H        24.0867   -0.9957   84.9991  H     
40   H        22.7884    3.2415   89.8724  H     
41   H        25.5445    2.5559   92.9980  H     
42   H        25.7900    0.3123   92.2205  H     
43   H        22.5650    4.8818   90.6687  H     
44   H        21.6245    6.6612   89.8183  H     
45   H        21.2772   10.0430   92.2940  H     
46   H        22.7329    9.0139   93.9034  H     
47   H        23.5768    6.7152   93.5382  H     
48   H        20.5818    8.5476   88.8808  H     
49   H        18.7172    7.9365   90.3749  H     
50   H        18.3545    9.3967   89.4403  H     
51   H        18.7894    9.5289   91.1587  H     
52   H        20.7645   11.2270   90.3443  H     
53   H        20.2621   10.9453   88.6776  H     
54   H        21.9315   10.6046   89.1649  H     
55   H        23.5865   -1.3592   90.0402  H     
56   H        25.1699   -1.5423   90.7984  H     
57   H        25.0580   -0.9861   89.1327  H     
58   H        26.9546    5.4081   91.0243  H     
59   H        27.3418    2.6855   91.0895  H     
60   H        28.5285    3.9161   91.5488  H     
61   H        28.4484    3.3438   89.8692  H     
@<TRIPOS>BOND
     1    1    2 2
     2    1    6 1
     3    1   33 1
     4    2    3 1
     5    3    4 2
     6    3    7 1
     7    4    5 1
     8    5    6 2
     9    7    8 2
    10    7   12 1
    11    8    9 1
    12    9   10 2
    13   10   11 1
    14   11   12 2
    15   12   13 1
    16   13   14 1
    17   14   15 2
    18   14   19 1
    19   15   16 1
    20   16   17 2
    21   16   20 1
    22   17   18 1
    23   18   19 2
    24   19   32 1
    25   20   21 2
    26   20   22 am
    27   22   23 1
    28   23   24 2
    29   23   28 1
    30   24   25 1
    31   25   26 2
    32   25   29 1
    33   26   27 1
    34   27   28 2
    35   29   30 1
    36   29   31 1
    37   33   34 1
    38    4   35 1
    39    5   36 1
    40    8   37 1
    41    9   38 1
    42   10   39 1
    43   15   40 1
    44   17   41 1
    45   18   42 1
    46   22   43 1
    47   24   44 1
    48   26   45 1
    49   27   46 1
    50   28   47 1
    51   29   48 1
    52   30   49 1
    53   30   50 1
    54   30   51 1
    55   31   52 1
    56   31   53 1
    57   31   54 1
    58   32   55 1
    59   32   56 1
    60   32   57 1
    61   33   58 1
    62   34   59 1
    63   34   60 1
    64   34   61 1
@<TRIPOS>PROPERTY_DATA
  Total_Score	| 1.6108
  Crash		| -9.2399
  Polar		| 0.0024
  FragIndex	| 1
  FragRMSD	| 1.481

