@<TRIPOS>MOLECULE
BindingDB_14977
 50 53 0 0 0
SMALL
NO_CHARGES


@<TRIPOS>ATOM
1    C        23.2502    6.3897   91.5795  C     
2    C        22.4905    6.1466   90.4166  C     
3    C        21.5161    7.1011   90.0316  C     
4    C        21.3008    8.2878   90.7800  C     
5    C        22.1092    8.5123   91.9196  C     
6    C        23.0757    7.5738   92.3170  C     
7    N        22.6956    4.9408   89.7920  N     
8    C        22.6294    4.6190   88.5007  C     
9    O        22.4562    5.5194   87.6851  O     
10   C        22.8178    3.2972   88.0393  C     
11   C        23.3200    0.9161   88.4367  C     
12   C        23.0835    0.5964   87.0798  C     
13   C        22.7603    1.6499   86.1876  C     
14   C        22.6237    2.9682   86.6712  C     
15   C        23.1875    2.2359   88.9066  C     
16   C        23.1748   -0.8179   86.6498  C     
17   C        23.5108    1.2429   83.9696  C     
18   C        24.2829    0.8530   81.6902  C     
19   C        25.6132    0.9873   82.1216  C     
20   C        25.8630    1.2751   83.4722  C     
21   N        24.8193    1.3919   84.3318  N     
22   C        23.2005    1.0033   82.6000  C     
23   C        21.8611    0.9261   82.1217  C     
24   C        19.5924    0.2983   82.5305  C     
25   C        20.1206    1.3664   80.4896  C     
26   C        21.4704    1.4495   80.8687  C     
27   N        19.2172    0.7962   81.3261  N     
28   N        20.8933    0.3733   82.9076  N     
29   C        20.2265    9.2401   90.3727  C     
30   F        20.0707   10.3170   91.2131  F     
31   F        20.4875    9.7434   89.1230  F     
32   F        19.0112    8.6011   90.3359  F     
33   O        22.4798    1.4330   84.8627  O     
34   H        23.9460    5.7090   91.8960  H     
35   H        20.9214    6.9121   89.2239  H     
36   H        21.9923    9.3549   92.4877  H     
37   H        23.6408    7.7411   93.1539  H     
38   H        22.9771    4.2338   90.3884  H     
39   H        23.5691    0.1791   89.1031  H     
40   H        22.3590    3.6932   85.9986  H     
41   H        23.3604    2.3964   89.9003  H     
42   H        24.2229   -1.1310   86.6460  H     
43   H        22.7569   -0.9621   85.6461  H     
44   H        22.6189   -1.4589   87.3514  H     
45   H        24.1129    0.6252   80.7060  H     
46   H        26.3885    0.8857   81.4603  H     
47   H        26.8173    1.3935   83.8101  H     
48   H        18.8975   -0.1173   83.1504  H     
49   H        19.8143    1.7412   79.5906  H     
50   H        22.1448    1.9011   80.2510  H     
@<TRIPOS>BOND
     1    1    2 1
     2    1    6 2
     3    2    3 2
     4    2    7 1
     5    3    4 1
     6    4    5 2
     7    4   29 1
     8    5    6 1
     9    7    8 am
    10    8    9 2
    11    8   10 1
    12   10   14 1
    13   10   15 2
    14   11   12 2
    15   11   15 1
    16   12   13 1
    17   12   16 1
    18   13   14 2
    19   13   33 1
    20   17   21 2
    21   17   22 1
    22   17   33 1
    23   18   19 1
    24   18   22 2
    25   19   20 2
    26   20   21 1
    27   22   23 1
    28   23   26 1
    29   23   28 2
    30   24   27 2
    31   24   28 1
    32   25   26 2
    33   25   27 1
    34   29   30 1
    35   29   31 1
    36   29   32 1
    37    1   34 1
    38    3   35 1
    39    5   36 1
    40    6   37 1
    41    7   38 1
    42   11   39 1
    43   14   40 1
    44   15   41 1
    45   16   42 1
    46   16   43 1
    47   16   44 1
    48   18   45 1
    49   19   46 1
    50   20   47 1
    51   24   48 1
    52   25   49 1
    53   26   50 1
@<TRIPOS>PROPERTY_DATA
  Total_Score	| 9.1258
  Crash		| -1.3020
  Polar		| 2.1231
  FragIndex	| 1
  FragRMSD	| 0.926

