@<TRIPOS>MOLECULE
BindingDB_14992
 70 74 0 0 0
SMALL
NO_CHARGES


@<TRIPOS>ATOM
1    C        23.3129    6.3089   91.4138  C     
2    C        22.6591    6.1389   90.1542  C     
3    C        21.6811    7.0736   89.7644  C     
4    C        21.3356    8.1941   90.5651  C     
5    C        22.0044    8.3430   91.8077  C     
6    C        22.9533    7.4088   92.2318  C     
7    N        22.8822    4.9578   89.4743  N     
8    C        22.7923    4.6493   88.1763  C     
9    O        22.6162    5.5562   87.3733  O     
10   C        22.9469    3.3343   87.6915  C     
11   C        23.3753    0.9273   88.0651  C     
12   C        23.1449    0.6325   86.7057  C     
13   C        22.8597    1.7041   85.8105  C     
14   C        22.7596    3.0172   86.3143  C     
15   C        23.2734    2.2445   88.5469  C     
16   C        23.5302    1.2301   83.5522  C     
17   C        24.2316    0.5458   81.3346  C     
18   C        25.5698    0.7640   81.6898  C     
19   C        25.8590    1.2233   82.9832  C     
20   N        24.8483    1.4330   83.8490  N     
21   C        23.1669    0.7940   82.2449  C     
22   O        22.5640    1.5416   84.4878  O     
23   C        20.2784    9.1325   90.1090  C     
24   F        20.0802   10.2248   90.9243  F     
25   F        20.5692    9.6159   88.8524  F     
26   F        19.0744    8.4782   90.0375  F     
27   C        26.6650    4.5850   93.2675  C     
28   C        25.3008    4.7130   93.9940  C     
29   C        24.1166    4.6216   93.0051  C     
30   C        25.5417    5.3501   91.1045  C     
31   C        26.7488    5.5568   92.0650  C     
32   N        24.2995    5.4668   91.8389  N     
33   C        21.8137    0.6736   81.7692  C     
34   C        19.3981    0.4629   82.0024  C     
35   C        20.6750    0.4564   82.5897  C     
36   N        21.5811    0.7836   80.4240  N     
37   N        19.2691    0.5927   80.6594  N     
38   C        20.3496    0.7333   79.8537  C     
39   N        20.1422    0.8107   78.5201  N     
40   C        21.1824    0.8708   77.5503  C     
41   C        23.2155   -0.7901   86.2690  C     
42   H        21.1625    6.9321   88.8981  H     
43   H        21.7927    9.1361   92.4200  H     
44   H        23.4214    7.5516   93.1307  H     
45   H        23.1454    4.2304   90.0495  H     
46   H        23.6102    0.1720   88.7195  H     
47   H        22.5276    3.7560   85.6460  H     
48   H        23.4293    2.3842   89.5450  H     
49   H        24.0378    0.2047   80.3875  H     
50   H        26.3214    0.5993   81.0200  H     
51   H        26.8232    1.3986   83.2688  H     
52   H        27.4763    4.7956   93.9673  H     
53   H        26.7877    3.5583   92.9097  H     
54   H        25.2200    3.9169   94.7387  H     
55   H        25.2544    5.6724   94.5180  H     
56   H        24.0529    3.5836   92.6488  H     
57   H        23.1884    4.8296   93.5404  H     
58   H        25.6209    6.0942   90.3066  H     
59   H        25.6101    4.3592   90.6504  H     
60   H        26.7480    6.5888   92.4327  H     
61   H        27.6819    5.3903   91.5231  H     
62   H        18.5664    0.3514   82.5862  H     
63   H        20.7475    0.2560   83.5866  H     
64   H        19.2236    0.7888   78.1970  H     
65   H        21.8036    1.7533   77.7119  H     
66   H        20.7491    0.9294   76.5505  H     
67   H        21.7989   -0.0273   77.6089  H     
68   H        24.2638   -1.0941   86.2125  H     
69   H        22.7524   -0.9578   85.2958  H     
70   H        22.6996   -1.4290   86.9859  H     
@<TRIPOS>BOND
     1    1    2 1
     2    1    6 2
     3    1   32 1
     4    2    3 2
     5    2    7 1
     6    3    4 1
     7    4    5 2
     8    4   23 1
     9    5    6 1
    10    7    8 am
    11    8    9 2
    12    8   10 1
    13   10   14 1
    14   10   15 2
    15   11   12 2
    16   11   15 1
    17   12   13 1
    18   12   41 1
    19   13   14 2
    20   13   22 1
    21   16   20 2
    22   16   21 1
    23   16   22 1
    24   17   18 1
    25   17   21 2
    26   18   19 2
    27   19   20 1
    28   21   33 1
    29   23   24 1
    30   23   25 1
    31   23   26 1
    32   27   28 1
    33   27   31 1
    34   28   29 1
    35   29   32 1
    36   30   31 1
    37   30   32 1
    38   33   35 2
    39   33   36 1
    40   34   35 1
    41   34   37 2
    42   36   38 2
    43   37   38 1
    44   38   39 1
    45   39   40 1
    46    3   42 1
    47    5   43 1
    48    6   44 1
    49    7   45 1
    50   11   46 1
    51   14   47 1
    52   15   48 1
    53   17   49 1
    54   18   50 1
    55   19   51 1
    56   27   52 1
    57   27   53 1
    58   28   54 1
    59   28   55 1
    60   29   56 1
    61   29   57 1
    62   30   58 1
    63   30   59 1
    64   31   60 1
    65   31   61 1
    66   34   62 1
    67   35   63 1
    68   39   64 1
    69   40   65 1
    70   40   66 1
    71   40   67 1
    72   41   68 1
    73   41   69 1
    74   41   70 1
@<TRIPOS>PROPERTY_DATA
  Total_Score	| 13.3600
  Crash		| -1.7442
  Polar		| 3.0511
  FragIndex	| 1
  FragRMSD	| 0.808

