@<TRIPOS>MOLECULE
BindingDB_14998
 77 80 0 0 0
SMALL
NO_CHARGES


@<TRIPOS>ATOM
1    C        23.1682    6.2108   91.7005  C     
2    C        22.6908    6.0812   90.3401  C     
3    C        21.9730    7.1671   89.7641  C     
4    C        21.6944    8.3649   90.4583  C     
5    C        22.1564    8.4861   91.7774  C     
6    C        22.8834    7.4385   92.3656  C     
7    N        22.7971    4.8776   89.6420  N     
8    C        22.6484    4.4950   88.3641  C     
9    O        22.4166    5.3226   87.4787  O     
10   C        22.7281    3.1351   87.9706  C     
11   C        23.0962    0.7416   88.4931  C     
12   C        22.9852    0.3905   87.1314  C     
13   C        22.7051    1.4022   86.1827  C     
14   C        22.5991    2.7478   86.6057  C     
15   C        22.9595    2.0870   88.9004  C     
16   C        23.4233    1.1213   83.9254  C     
17   C        24.1677    1.0616   81.6205  C     
18   C        25.4936    1.2276   82.0457  C     
19   C        25.7563    1.3062   83.4185  C     
20   N        24.7299    1.2546   84.2977  N     
21   C        23.0920    0.9876   82.5453  C     
22   O        22.4278    1.0882   84.8733  O     
23   C        20.9029    9.4369   89.7957  C     
24   F        20.7565   10.5856   90.5414  F     
25   F        21.5349    9.8069   88.6305  F     
26   F        19.6456    8.9768   89.5043  F     
27   C        23.1553   -1.0292   86.7487  C     
28   C        21.7504    0.7978   82.0684  C     
29   C        19.4288    0.4659   82.4586  C     
30   C        20.2048    0.6884   80.2466  C     
31   N        20.6963    0.6054   82.9109  N     
32   N        19.1941    0.5131   81.1268  N     
33   N        21.4670    0.8282   80.7345  N     
34   N        19.9092    0.7253   78.9307  N     
35   C        20.8665    0.8988   77.8891  C     
36   C        23.8303    5.1340   93.8564  C     
37   C        24.7717    4.3315   91.7106  C     
38   N        23.8875    5.2434   92.4041  N     
39   C        26.1668    3.9407   92.3039  C     
40   C        27.3236    3.9113   91.2625  C     
41   N        27.7459    5.2011   90.6027  N     
42   C        27.0412    5.5927   89.3513  C     
43   C        27.9310    6.3633   91.5308  C     
44   H        21.5994    7.1125   88.8193  H     
45   H        21.9682    9.3328   92.3374  H     
46   H        23.2171    7.6279   93.3078  H     
47   H        23.0437    4.1437   90.1965  H     
48   H        23.2688    0.0217   89.1937  H     
49   H        22.3844    3.4523   85.8950  H     
50   H        23.0163    2.2600   89.9012  H     
51   H        24.0031    0.9823   80.6158  H     
52   H        26.2552    1.2659   81.3681  H     
53   H        26.7137    1.3999   83.7598  H     
54   H        24.1620   -1.3503   87.0237  H     
55   H        23.0322   -1.2115   85.6807  H     
56   H        22.4348   -1.6642   87.2762  H     
57   H        18.6618    0.3361   83.1158  H     
58   H        18.9799    0.6383   78.6635  H     
59   H        21.3952    1.8468   78.0101  H     
60   H        20.3488    0.9047   76.9315  H     
61   H        21.5866    0.0763   77.8936  H     
62   H        24.4445    5.9122   94.3134  H     
63   H        24.2260    4.1696   94.2396  H     
64   H        22.7921    5.2214   94.2045  H     
65   H        24.2240    3.4053   91.5033  H     
66   H        25.0004    4.8257   90.7614  H     
67   H        26.4215    4.6002   93.1551  H     
68   H        26.0555    2.9275   92.7417  H     
69   H        28.2067    3.5360   91.7933  H     
70   H        27.0920    3.1609   90.5063  H     
71   H        28.6955    4.9967   90.2708  H     
72   H        26.9557    4.7139   88.6910  H     
73   H        27.6194    6.3442   88.8072  H     
74   H        26.0557    6.0077   89.5142  H     
75   H        26.9807    6.7956   91.8593  H     
76   H        28.5160    7.1630   91.0574  H     
77   H        28.4740    6.0273   92.4163  H     
@<TRIPOS>BOND
     1    1    2 1
     2    1    6 2
     3    1   38 1
     4    2    3 2
     5    2    7 1
     6    3    4 1
     7    4    5 2
     8    4   23 1
     9    5    6 1
    10    7    8 am
    11    8    9 2
    12    8   10 1
    13   10   14 1
    14   10   15 2
    15   11   12 2
    16   11   15 1
    17   12   13 1
    18   12   27 1
    19   13   14 2
    20   13   22 1
    21   16   20 2
    22   16   21 1
    23   16   22 1
    24   17   18 1
    25   17   21 2
    26   18   19 2
    27   19   20 1
    28   21   28 1
    29   23   24 1
    30   23   25 1
    31   23   26 1
    32   28   31 2
    33   28   33 1
    34   29   31 1
    35   29   32 2
    36   30   32 1
    37   30   33 2
    38   30   34 1
    39   34   35 1
    40   36   38 1
    41   37   38 1
    42   37   39 1
    43   39   40 1
    44   40   41 1
    45   41   42 1
    46   41   43 1
    47    3   44 1
    48    5   45 1
    49    6   46 1
    50    7   47 1
    51   11   48 1
    52   14   49 1
    53   15   50 1
    54   17   51 1
    55   18   52 1
    56   19   53 1
    57   27   54 1
    58   27   55 1
    59   27   56 1
    60   29   57 1
    61   34   58 1
    62   35   59 1
    63   35   60 1
    64   35   61 1
    65   36   62 1
    66   36   63 1
    67   36   64 1
    68   37   65 1
    69   37   66 1
    70   39   67 1
    71   39   68 1
    72   40   69 1
    73   40   70 1
    74   41   71 1
    75   42   72 1
    76   42   73 1
    77   42   74 1
    78   43   75 1
    79   43   76 1
    80   43   77 1
@<TRIPOS>PROPERTY_DATA
  Total_Score	| 15.0752
  Crash		| -2.6887
  Polar		| 2.9658
  FragIndex	| 1
  FragRMSD	| 0.876

