@<TRIPOS>MOLECULE
BindingDB_14982
 63 67 0 0 0
SMALL
NO_CHARGES


@<TRIPOS>ATOM
1    C        23.3156    6.3064   91.4082  C     
2    C        22.6401    6.1008   90.1694  C     
3    C        21.6873    7.0563   89.7407  C     
4    C        21.3968    8.2164   90.4945  C     
5    C        22.0710    8.3930   91.7262  C     
6    C        23.0060    7.4439   92.1810  C     
7    N        22.7809    4.8739   89.5694  N     
8    C        22.7209    4.4905   88.2961  C     
9    O        22.6211    5.3447   87.4257  O     
10   C        22.8375    3.1334   87.9346  C     
11   C        23.1814    0.7598   88.5249  C     
12   C        22.9892    0.3587   87.1858  C     
13   C        22.7321    1.3604   86.2143  C     
14   C        22.6590    2.7192   86.5896  C     
15   C        23.1116    2.1162   88.8883  C     
16   C        23.0419   -1.0872   86.8495  C     
17   C        23.5106    1.0565   83.9871  C     
18   C        24.4167    0.8990   81.7494  C     
19   C        25.7014    1.1563   82.2436  C     
20   C        25.8652    1.3491   83.6173  C     
21   N        24.7818    1.2954   84.4221  N     
22   C        23.2681    0.8216   82.5916  C     
23   C        21.9477    0.5424   82.0606  C     
24   C        19.5812    0.3988   82.5063  C     
25   C        20.3245   -0.0331   80.3215  C     
26   C        21.6550    0.1727   80.7154  C     
27   N        19.3145    0.0791   81.2175  N     
28   N        20.8600    0.6247   82.8784  N     
29   O        22.4837    1.0261   84.9110  O     
30   C        20.3261    9.1541   90.0422  C     
31   F        20.3512   10.3763   90.6725  F     
32   F        20.4142    9.4200   88.6929  F     
33   F        19.0935    8.5915   90.2815  F     
34   C        26.6987    5.4637   92.1089  C     
35   C        25.5217    5.2854   91.1123  C     
36   C        24.0940    4.6124   93.0111  C     
37   C        25.3261    4.6979   93.9466  C     
38   N        24.2793    5.4360   91.8384  N     
39   O        26.5606    4.5512   93.2171  O     
40   H        21.1528    6.8812   88.8907  H     
41   H        21.8782    9.2051   92.3165  H     
42   H        23.4796    7.6102   93.0724  H     
43   H        22.9636    4.1641   90.1956  H     
44   H        23.3505    0.0586   89.2504  H     
45   H        22.4421    3.4014   85.8580  H     
46   H        23.2541    2.3379   89.8768  H     
47   H        24.0284   -1.4878   87.0764  H     
48   H        22.8349   -1.2876   85.7978  H     
49   H        22.3024   -1.6270   87.4411  H     
50   H        24.3638    0.7878   80.7420  H     
51   H        26.5067    1.2074   81.6122  H     
52   H        26.7862    1.5332   84.0154  H     
53   H        18.8147    0.4645   83.1798  H     
54   H        20.1061   -0.2737   79.3553  H     
55   H        22.3685    0.0358   80.0044  H     
56   H        27.6447    5.2510   91.6069  H     
57   H        26.7363    6.4952   92.4741  H     
58   H        25.6288    6.0083   90.2985  H     
59   H        25.5738    4.2823   90.6754  H     
60   H        23.9912    3.5759   92.6778  H     
61   H        23.1929    4.8730   93.5748  H     
62   H        25.3150    5.6510   94.4834  H     
63   H        25.2782    3.8950   94.6845  H     
@<TRIPOS>BOND
     1    1    2 1
     2    1    6 2
     3    1   38 1
     4    2    3 2
     5    2    7 1
     6    3    4 1
     7    4    5 2
     8    4   30 1
     9    5    6 1
    10    7    8 am
    11    8    9 2
    12    8   10 1
    13   10   14 1
    14   10   15 2
    15   11   12 2
    16   11   15 1
    17   12   13 1
    18   12   16 1
    19   13   14 2
    20   13   29 1
    21   17   21 2
    22   17   22 1
    23   17   29 1
    24   18   19 1
    25   18   22 2
    26   19   20 2
    27   20   21 1
    28   22   23 1
    29   23   26 1
    30   23   28 2
    31   24   27 2
    32   24   28 1
    33   25   26 2
    34   25   27 1
    35   30   31 1
    36   30   32 1
    37   30   33 1
    38   34   35 1
    39   34   39 1
    40   35   38 1
    41   36   37 1
    42   36   38 1
    43   37   39 1
    44    3   40 1
    45    5   41 1
    46    6   42 1
    47    7   43 1
    48   11   44 1
    49   14   45 1
    50   15   46 1
    51   16   47 1
    52   16   48 1
    53   16   49 1
    54   18   50 1
    55   19   51 1
    56   20   52 1
    57   24   53 1
    58   25   54 1
    59   26   55 1
    60   34   56 1
    61   34   57 1
    62   35   58 1
    63   35   59 1
    64   36   60 1
    65   36   61 1
    66   37   62 1
    67   37   63 1
@<TRIPOS>PROPERTY_DATA
  Total_Score	| 11.9520
  Crash		| -1.4405
  Polar		| 2.2680
  FragIndex	| 1
  FragRMSD	| 0.744

