@<TRIPOS>MOLECULE
BindingDB_14980
 65 69 0 0 0
SMALL
NO_CHARGES


@<TRIPOS>ATOM
1    C        23.3554    6.3321   91.5204  C     
2    C        22.6411    6.1300   90.3001  C     
3    C        21.6866    7.0830   89.8979  C     
4    C        21.4222    8.2527   90.6560  C     
5    C        22.1504    8.4347   91.8633  C     
6    C        23.0742    7.4819   92.2971  C     
7    N        22.8141    4.9286   89.6614  N     
8    C        22.7030    4.5976   88.3761  C     
9    O        22.5444    5.4967   87.5602  O     
10   C        22.8291    3.2680   87.9341  C     
11   C        23.3002    0.8838   88.3607  C     
12   C        23.0725    0.5550   87.0060  C     
13   C        22.7332    1.5955   86.1068  C     
14   C        22.6199    2.9229   86.5755  C     
15   C        23.1662    2.2065   88.8165  C     
16   C        23.1867   -0.8707   86.5963  C     
17   C        23.4625    1.2650   83.8720  C     
18   C        24.2491    0.9511   81.5918  C     
19   C        25.5752    1.1145   82.0343  C     
20   C        25.8111    1.3716   83.3930  C     
21   N        24.7652    1.4347   84.2460  N     
22   C        23.1603    1.0486   82.4925  C     
23   C        21.8098    0.9528   82.0257  C     
24   C        19.5419    0.3286   82.4675  C     
25   C        20.0363    1.3591   80.4021  C     
26   C        21.3954    1.4501   80.7569  C     
27   N        19.1369    0.8059   81.2597  N     
28   N        20.8486    0.4169   82.8318  N     
29   O        22.4329    1.3731   84.7857  O     
30   C        20.3801    9.2148   90.2003  C     
31   F        20.3499   10.3938   90.9053  F     
32   F        20.5540    9.5569   88.8792  F     
33   F        19.1431    8.6369   90.3253  F     
34   C        26.7012    4.6337   93.3597  C     
35   C        26.7885    5.6245   92.1699  C     
36   C        25.5987    5.4256   91.1929  C     
37   C        24.1599    4.5937   93.0357  C     
38   C        25.3184    4.7151   94.0579  C     
39   N        24.3432    5.4933   91.9163  N     
40   H        21.1241    6.9000   89.0642  H     
41   H        22.0004    9.2680   92.4415  H     
42   H        23.5856    7.6356   93.1755  H     
43   H        23.0726    4.2046   90.2461  H     
44   H        23.5419    0.1559   89.0386  H     
45   H        22.3668    3.6417   85.8936  H     
46   H        23.3221    2.3754   89.8118  H     
47   H        24.2352   -1.1741   86.6239  H     
48   H        22.8040   -1.0443   85.5876  H     
49   H        22.6230   -1.5066   87.2861  H     
50   H        24.0797    0.7538   80.5987  H     
51   H        26.3583    1.0620   81.3821  H     
52   H        26.7617    1.5116   83.7464  H     
53   H        18.8526   -0.0762   83.1125  H     
54   H        19.7115    1.7088   79.4931  H     
55   H        22.0650    1.8949   80.1204  H     
56   H        26.8710    3.6152   92.9964  H     
57   H        27.4861    4.8662   94.0842  H     
58   H        26.7730    6.6500   92.5505  H     
59   H        27.7336    5.4761   91.6375  H     
60   H        25.6550    6.1895   90.4115  H     
61   H        25.6815    4.4541   90.7011  H     
62   H        24.1355    3.5694   92.6497  H     
63   H        23.2103    4.7750   93.5539  H     
64   H        25.2422    3.9111   94.7937  H     
65   H        25.2334    5.6718   94.5861  H     
@<TRIPOS>BOND
     1    1    2 1
     2    1    6 2
     3    1   39 1
     4    2    3 2
     5    2    7 1
     6    3    4 1
     7    4    5 2
     8    4   30 1
     9    5    6 1
    10    7    8 am
    11    8    9 2
    12    8   10 1
    13   10   14 1
    14   10   15 2
    15   11   12 2
    16   11   15 1
    17   12   13 1
    18   12   16 1
    19   13   14 2
    20   13   29 1
    21   17   21 2
    22   17   22 1
    23   17   29 1
    24   18   19 1
    25   18   22 2
    26   19   20 2
    27   20   21 1
    28   22   23 1
    29   23   26 1
    30   23   28 2
    31   24   27 2
    32   24   28 1
    33   25   26 2
    34   25   27 1
    35   30   31 1
    36   30   32 1
    37   30   33 1
    38   34   35 1
    39   34   38 1
    40   35   36 1
    41   36   39 1
    42   37   38 1
    43   37   39 1
    44    3   40 1
    45    5   41 1
    46    6   42 1
    47    7   43 1
    48   11   44 1
    49   14   45 1
    50   15   46 1
    51   16   47 1
    52   16   48 1
    53   16   49 1
    54   18   50 1
    55   19   51 1
    56   20   52 1
    57   24   53 1
    58   25   54 1
    59   26   55 1
    60   34   56 1
    61   34   57 1
    62   35   58 1
    63   35   59 1
    64   36   60 1
    65   36   61 1
    66   37   62 1
    67   37   63 1
    68   38   64 1
    69   38   65 1
@<TRIPOS>PROPERTY_DATA
  Total_Score	| 12.3290
  Crash		| -1.6645
  Polar		| 2.1528
  FragIndex	| 1
  FragRMSD	| 0.924

