@<TRIPOS>MOLECULE
BindingDB_14994
 67 71 0 0 0
SMALL
NO_CHARGES


@<TRIPOS>ATOM
1    C        23.3932    6.2717   91.4972  C     
2    C        22.6839    6.1089   90.2785  C     
3    C        21.7322    7.0789   89.9000  C     
4    C        21.5265    8.2716   90.6632  C     
5    C        22.2818    8.4201   91.8609  C     
6    C        23.1627    7.4193   92.2872  C     
7    N        22.8228    4.9128   89.6235  N     
8    C        22.6801    4.6054   88.3366  C     
9    O        22.6125    5.5541   87.5512  O     
10   C        22.7968    3.2963   87.8253  C     
11   C        23.0543    0.8468   88.0655  C     
12   C        22.9603    0.6788   86.6748  C     
13   C        22.7797    1.8007   85.8486  C     
14   C        22.6901    3.0735   86.4229  C     
15   C        22.9696    2.1259   88.6399  C     
16   C        23.4827    1.2867   83.6351  C     
17   C        24.1828    0.5812   81.4213  C     
18   C        25.5264    0.7988   81.7890  C     
19   C        25.8114    1.2800   83.0775  C     
20   N        24.7891    1.5101   83.9370  N     
21   C        23.1287    0.8289   82.3352  C     
22   O        22.5077    1.7007   84.5101  O     
23   C        20.5459    9.2883   90.2073  C     
24   F        20.5305   10.4472   90.9554  F     
25   F        20.7968    9.6714   88.9077  F     
26   F        19.2848    8.7479   90.2749  F     
27   C        26.6849    4.4849   93.3297  C     
28   C        25.3219    4.6535   94.0562  C     
29   C        24.1347    4.5588   93.0636  C     
30   C        25.5749    5.2309   91.1494  C     
31   C        26.7912    5.4270   92.1058  C     
32   N        24.3415    5.3893   91.8934  N     
33   C        21.7661    0.6788   81.9127  C     
34   C        19.3866    0.4345   82.3199  C     
35   C        20.6990    0.4321   82.7972  C     
36   N        21.4536    0.8274   80.5866  N     
37   N        19.1636    0.6063   80.9906  N     
38   C        20.1734    0.7833   80.1106  C     
39   N        19.8634    0.8954   78.8048  N     
40   C        20.8049    1.0016   77.7423  C     
41   F        23.0403    2.1725   89.9442  F     
42   H        21.1751    6.9556   89.0545  H     
43   H        22.1444    9.2344   92.4601  H     
44   H        23.6843    7.5576   93.1593  H     
45   H        23.0926    4.1788   90.2028  H     
46   H        23.1621    0.0157   88.6592  H     
47   H        22.9908   -0.2578   86.2684  H     
48   H        22.5392    3.8628   85.7870  H     
49   H        23.9815    0.2329   80.4804  H     
50   H        26.2793    0.6206   81.1175  H     
51   H        26.7717    1.4620   83.3641  H     
52   H        27.4926    4.6965   94.0365  H     
53   H        26.7860    3.4458   93.0050  H     
54   H        25.2179    3.8858   94.8153  H     
55   H        25.3002    5.6345   94.5489  H     
56   H        24.0333    3.5231   92.7290  H     
57   H        23.2157    4.8222   93.5911  H     
58   H        25.6565    5.9524   90.3392  H     
59   H        25.6189    4.2284   90.7076  H     
60   H        26.8171    6.4622   92.4513  H     
61   H        27.7181    5.2195   91.5704  H     
62   H        18.5978    0.2958   82.9451  H     
63   H        20.8593    0.2379   83.7906  H     
64   H        18.9239    0.8744   78.5479  H     
65   H        21.4080    1.9017   77.8504  H     
66   H        20.2714    1.0486   76.7935  H     
67   H        21.4544    0.1285   77.7312  H     
@<TRIPOS>BOND
     1    1    2 1
     2    1    6 2
     3    1   32 1
     4    2    3 2
     5    2    7 1
     6    3    4 1
     7    4    5 2
     8    4   23 1
     9    5    6 1
    10    7    8 am
    11    8    9 2
    12    8   10 1
    13   10   14 1
    14   10   15 2
    15   11   12 2
    16   11   15 1
    17   12   13 1
    18   13   14 2
    19   13   22 1
    20   15   41 1
    21   16   20 2
    22   16   21 1
    23   16   22 1
    24   17   18 1
    25   17   21 2
    26   18   19 2
    27   19   20 1
    28   21   33 1
    29   23   24 1
    30   23   25 1
    31   23   26 1
    32   27   28 1
    33   27   31 1
    34   28   29 1
    35   29   32 1
    36   30   31 1
    37   30   32 1
    38   33   35 2
    39   33   36 1
    40   34   35 1
    41   34   37 2
    42   36   38 2
    43   37   38 1
    44   38   39 1
    45   39   40 1
    46    3   42 1
    47    5   43 1
    48    6   44 1
    49    7   45 1
    50   11   46 1
    51   12   47 1
    52   14   48 1
    53   17   49 1
    54   18   50 1
    55   19   51 1
    56   27   52 1
    57   27   53 1
    58   28   54 1
    59   28   55 1
    60   29   56 1
    61   29   57 1
    62   30   58 1
    63   30   59 1
    64   31   60 1
    65   31   61 1
    66   34   62 1
    67   35   63 1
    68   39   64 1
    69   40   65 1
    70   40   66 1
    71   40   67 1
@<TRIPOS>PROPERTY_DATA
  Total_Score	| 12.7307
  Crash		| -2.1339
  Polar		| 3.2595
  FragIndex	| 1
  FragRMSD	| 0.538

