@<TRIPOS>MOLECULE
BindingDB_14948
 55 58 0 0 0
SMALL
NO_CHARGES


@<TRIPOS>ATOM
1    C        19.3602    0.4150   82.3561  C     
2    C        20.2714    0.8982   80.2281  C     
3    C        21.7566    0.8126   82.1334  C     
4    C        20.6407    0.4656   82.9343  C     
5    N        19.2114    0.6246   81.0257  N     
6    N        21.5031    0.9967   80.8023  N     
7    N        20.0660    1.0188   78.8953  N     
8    C        21.1026    1.1774   77.9314  C     
9    C        23.1054    0.9563   82.6219  C     
10   C        23.4556    1.1301   83.9985  C     
11   C        24.1746    0.9772   81.6842  C     
12   C        25.5055    1.1681   82.0861  C     
13   C        25.7818    1.3383   83.4474  C     
14   N        24.7643    1.3145   84.3354  N     
15   O        22.4870    1.1547   84.9803  O     
16   C        22.8107    1.4569   86.2865  C     
17   C        23.4736    0.8628   88.5480  C     
18   C        23.2121    0.4670   87.2190  C     
19   C        22.6409    2.7934   86.7079  C     
20   C        22.8813    3.2041   88.0473  C     
21   C        23.3125    2.2006   88.9534  C     
22   C        23.3564   -0.9552   86.8155  C     
23   C        22.6910    4.5417   88.4431  C     
24   O        22.6166    5.4093   87.5792  O     
25   N        22.6763    4.9066   89.7267  N     
26   C        22.4673    6.1402   90.2869  C     
27   C        23.2113    6.4635   91.4410  C     
28   C        21.5005    7.0684   89.8309  C     
29   C        21.2971    8.3154   90.4746  C     
30   C        22.0732    8.6099   91.6192  C     
31   C        23.0259    7.6932   92.0988  C     
32   C        20.2472    9.2467   89.9695  C     
33   F        20.3463   10.5155   90.4870  F     
34   F        20.3094    9.3838   88.6017  F     
35   F        19.0063    8.7565   90.2967  F     
36   H        18.5437    0.1949   82.9291  H     
37   H        20.7429    0.2159   83.9157  H     
38   H        19.1540    0.9413   78.5598  H     
39   H        21.6128    2.1329   78.0745  H     
40   H        20.6629    1.1564   76.9322  H     
41   H        21.8262    0.3611   78.0062  H     
42   H        24.0000    0.8509   80.6838  H     
43   H        26.2646    1.1909   81.3999  H     
44   H        26.7372    1.4882   83.7733  H     
45   H        23.7905    0.1746   89.2362  H     
46   H        22.3288    3.4765   86.0121  H     
47   H        23.5175    2.4237   89.9301  H     
48   H        22.4258   -1.3195   86.3772  H     
49   H        23.5976   -1.6010   87.6622  H     
50   H        24.1547   -1.0600   86.0783  H     
51   H        22.8842    4.2093   90.3614  H     
52   H        23.9036    5.8064   91.8122  H     
53   H        20.9122    6.8276   89.0330  H     
54   H        21.9462    9.4869   92.1296  H     
55   H        23.5782    7.9199   92.9320  H     
@<TRIPOS>BOND
     1    1    4 1
     2    1    5 2
     3    2    5 1
     4    2    6 2
     5    2    7 1
     6    3    4 2
     7    3    6 1
     8    3    9 1
     9    7    8 1
    10    9   10 2
    11    9   11 1
    12   10   14 1
    13   10   15 1
    14   11   12 2
    15   12   13 1
    16   13   14 2
    17   15   16 1
    18   16   18 1
    19   16   19 2
    20   17   18 2
    21   17   21 1
    22   18   22 1
    23   19   20 1
    24   20   21 2
    25   20   23 1
    26   23   24 2
    27   23   25 am
    28   25   26 1
    29   26   27 1
    30   26   28 2
    31   27   31 2
    32   28   29 1
    33   29   30 2
    34   29   32 1
    35   30   31 1
    36   32   33 1
    37   32   34 1
    38   32   35 1
    39    1   36 1
    40    4   37 1
    41    7   38 1
    42    8   39 1
    43    8   40 1
    44    8   41 1
    45   11   42 1
    46   12   43 1
    47   13   44 1
    48   17   45 1
    49   19   46 1
    50   21   47 1
    51   22   48 1
    52   22   49 1
    53   22   50 1
    54   25   51 1
    55   27   52 1
    56   28   53 1
    57   30   54 1
    58   31   55 1
@<TRIPOS>PROPERTY_DATA
  Total_Score	| 9.7239
  Crash		| -1.7992
  Polar		| 3.1939
  FragIndex	| 1
  FragRMSD	| 0.473

