@<TRIPOS>MOLECULE
BindingDB_14993
 70 74 0 0 0
SMALL
NO_CHARGES


@<TRIPOS>ATOM
1    C        23.2834    6.5857   91.6121  C     
2    C        22.7199    6.2324   90.3610  C     
3    C        21.7152    7.0605   89.8074  C     
4    C        21.2830    8.2454   90.4506  C     
5    C        21.8614    8.5757   91.6961  C     
6    C        22.8404    7.7524   92.2753  C     
7    N        23.0070    4.9986   89.8265  N     
8    C        22.9990    4.6094   88.5495  C     
9    O        23.0376    5.5037   87.7149  O     
10   C        23.0013    3.2466   88.1388  C     
11   C        23.1903    0.8671   88.7881  C     
12   C        22.9828    0.4721   87.4630  C     
13   C        22.7796    1.4334   86.4565  C     
14   C        22.7349    2.8179   86.7878  C     
15   C        23.2126    2.2301   89.1147  C     
16   C        23.4738    1.0367   84.1894  C     
17   C        24.1792    1.0881   81.8679  C     
18   C        25.5055    1.2876   82.2774  C     
19   C        25.7913    1.3444   83.6470  C     
20   N        24.7821    1.2148   84.5327  N     
21   C        23.1148    0.9575   82.8036  C     
22   O        22.5297    0.9472   85.1914  O     
23   C        20.2167    9.0758   89.8236  C     
24   F        19.9618   10.2524   90.4888  F     
25   F        20.5585    9.4182   88.5346  F     
26   F        19.0364    8.3714   89.7857  F     
27   C        26.2712    3.8951   92.9067  C     
28   C        26.3456    4.6056   91.5298  C     
29   C        25.6286    5.9781   91.5696  C     
30   C        24.1812    5.2611   93.4594  C     
31   C        24.8133    3.8432   93.4367  C     
32   N        24.3094    5.8754   92.1563  N     
33   C        21.7712    0.7930   82.3002  C     
34   C        19.3847    0.2941   82.5013  C     
35   C        20.6636    0.3777   83.0780  C     
36   N        21.5043    1.0106   80.9765  N     
37   N        19.2283    0.5397   81.1771  N     
38   C        20.2785    0.8821   80.3952  C     
39   N        20.0683    1.0457   79.0669  N     
40   C        21.0932    1.2819   78.1074  C     
41   C        22.3531    3.7700   85.7070  C     
42   H        21.2575    6.7804   88.9377  H     
43   H        21.5784    9.4209   92.2022  H     
44   H        23.2583    8.0343   93.1666  H     
45   H        23.1976    4.3147   90.4829  H     
46   H        23.3256    0.1605   89.5117  H     
47   H        22.9689   -0.5270   87.2319  H     
48   H        23.3861    2.4579   90.0935  H     
49   H        24.0106    1.0388   80.8629  H     
50   H        26.2583    1.3983   81.5900  H     
51   H        26.7422    1.4978   83.9825  H     
52   H        26.6612    2.8795   92.8120  H     
53   H        26.9006    4.4300   93.6268  H     
54   H        27.3952    4.7469   91.2527  H     
55   H        25.8772    3.9780   90.7686  H     
56   H        26.2253    6.6705   92.1744  H     
57   H        25.6019    6.3843   90.5533  H     
58   H        23.1315    5.1672   93.7629  H     
59   H        24.6884    5.8739   94.2115  H     
60   H        24.2178    3.1911   92.7905  H     
61   H        24.8082    3.4165   94.4449  H     
62   H        18.5811    0.0153   83.0701  H     
63   H        20.7633    0.0820   84.0462  H     
64   H        19.1586    0.9502   78.7286  H     
65   H        21.5725    2.2457   78.2864  H     
66   H        20.6389    1.2879   77.1178  H     
67   H        21.8421    0.4888   78.1408  H     
68   H        21.5512    4.4188   86.0602  H     
69   H        21.9795    3.2928   84.8028  H     
70   H        23.2196    4.3748   85.4305  H     
@<TRIPOS>BOND
     1    1    2 1
     2    1    6 2
     3    1   32 1
     4    2    3 2
     5    2    7 1
     6    3    4 1
     7    4    5 2
     8    4   23 1
     9    5    6 1
    10    7    8 am
    11    8    9 2
    12    8   10 1
    13   10   14 1
    14   10   15 2
    15   11   12 2
    16   11   15 1
    17   12   13 1
    18   13   14 2
    19   13   22 1
    20   14   41 1
    21   16   20 2
    22   16   21 1
    23   16   22 1
    24   17   18 1
    25   17   21 2
    26   18   19 2
    27   19   20 1
    28   21   33 1
    29   23   24 1
    30   23   25 1
    31   23   26 1
    32   27   28 1
    33   27   31 1
    34   28   29 1
    35   29   32 1
    36   30   31 1
    37   30   32 1
    38   33   35 2
    39   33   36 1
    40   34   35 1
    41   34   37 2
    42   36   38 2
    43   37   38 1
    44   38   39 1
    45   39   40 1
    46    3   42 1
    47    5   43 1
    48    6   44 1
    49    7   45 1
    50   11   46 1
    51   12   47 1
    52   15   48 1
    53   17   49 1
    54   18   50 1
    55   19   51 1
    56   27   52 1
    57   27   53 1
    58   28   54 1
    59   28   55 1
    60   29   56 1
    61   29   57 1
    62   30   58 1
    63   30   59 1
    64   31   60 1
    65   31   61 1
    66   34   62 1
    67   35   63 1
    68   39   64 1
    69   40   65 1
    70   40   66 1
    71   40   67 1
    72   41   68 1
    73   41   69 1
    74   41   70 1
@<TRIPOS>PROPERTY_DATA
  Total_Score	| 13.0398
  Crash		| -2.9325
  Polar		| 3.0923
  FragIndex	| 1
  FragRMSD	| 0.542

