@<TRIPOS>MOLECULE
BindingDB_14990
 67 71 0 0 0
SMALL
NO_CHARGES


@<TRIPOS>ATOM
1    C        23.3854    6.3281   91.5148  C     
2    C        22.6231    6.1353   90.3338  C     
3    C        21.6366    7.0872   89.9976  C     
4    C        21.4190    8.2461   90.7862  C     
5    C        22.2198    8.4308   91.9322  C     
6    C        23.1658    7.4693   92.3111  C     
7    N        22.7450    4.9483   89.6756  N     
8    C        22.6405    4.6741   88.3768  C     
9    O        22.4705    5.6075   87.6037  O     
10   C        22.8028    3.3744   87.8547  C     
11   C        23.2086    0.9575   88.1502  C     
12   C        23.0429    0.7374   86.7772  C     
13   C        22.7825    1.8189   85.9190  C     
14   C        22.6542    3.1184   86.4610  C     
15   C        23.1050    2.2560   88.6773  C     
16   C        23.5060    1.2719   83.7095  C     
17   C        24.2105    0.5549   81.4926  C     
18   C        25.5527    0.7626   81.8622  C     
19   C        25.8293    1.2336   83.1530  C     
20   N        24.8147    1.4728   84.0221  N     
21   C        23.1548    0.8105   82.4040  C     
22   O        22.5105    1.6434   84.5850  O     
23   C        20.3391    9.2006   90.3951  C     
24   F        20.1599   10.2372   91.2866  F     
25   F        20.6101    9.7584   89.1693  F     
26   F        19.1344    8.5433   90.3121  F     
27   C        26.6575    4.3478   93.2454  C     
28   C        25.3021    4.5126   93.9949  C     
29   C        24.1062    4.5424   93.0222  C     
30   C        25.5806    5.2975   91.1464  C     
31   C        26.8015    5.3713   92.0893  C     
32   N        24.3466    5.4413   91.9035  N     
33   C        21.8035    0.6569   81.9660  C     
34   C        19.4203    0.3587   82.3308  C     
35   C        20.7224    0.4184   82.8485  C     
36   N        21.5099    0.7451   80.6368  N     
37   N        19.2154    0.4820   80.9932  N     
38   C        20.2476    0.6558   80.1304  C     
39   N        19.9844    0.7217   78.8021  N     
40   C        20.9732    0.8572   77.7808  C     
41   F        23.1242   -0.4792   86.2919  F     
42   H        21.0154    6.9167   89.1943  H     
43   H        22.1179    9.2625   92.5175  H     
44   H        23.7260    7.6254   93.1490  H     
45   H        23.0103    4.2073   90.2399  H     
46   H        23.3930    0.1614   88.7690  H     
47   H        22.4299    3.8830   85.8169  H     
48   H        23.2356    2.3568   89.6891  H     
49   H        24.0181    0.1951   80.5603  H     
50   H        26.3054    0.5536   81.2084  H     
51   H        26.7934    1.3918   83.4397  H     
52   H        27.4803    4.4836   93.9571  H     
53   H        26.7270    3.3325   92.8411  H     
54   H        25.1695    3.6866   94.7009  H     
55   H        25.3188    5.4408   94.5681  H     
56   H        23.9485    3.5433   92.6094  H     
57   H        23.2039    4.7994   93.5909  H     
58   H        25.7115    6.0920   90.4056  H     
59   H        25.5749    4.3423   90.6100  H     
60   H        26.8779    6.3763   92.5108  H     
61   H        27.7190    5.1732   91.5240  H     
62   H        18.6375    0.1967   82.9660  H     
63   H        20.8731    0.2716   83.8522  H     
64   H        19.0577    0.6617   78.5073  H     
65   H        21.5695    1.7624   77.9436  H     
66   H        20.4951    0.9271   76.8008  H     
67   H        21.6335   -0.0153   77.7748  H     
@<TRIPOS>BOND
     1    1    2 1
     2    1    6 2
     3    1   32 1
     4    2    3 2
     5    2    7 1
     6    3    4 1
     7    4    5 2
     8    4   23 1
     9    5    6 1
    10    7    8 am
    11    8    9 2
    12    8   10 1
    13   10   14 1
    14   10   15 2
    15   11   12 2
    16   11   15 1
    17   12   13 1
    18   12   41 1
    19   13   14 2
    20   13   22 1
    21   16   20 2
    22   16   21 1
    23   16   22 1
    24   17   18 1
    25   17   21 2
    26   18   19 2
    27   19   20 1
    28   21   33 1
    29   23   24 1
    30   23   25 1
    31   23   26 1
    32   27   28 1
    33   27   31 1
    34   28   29 1
    35   29   32 1
    36   30   31 1
    37   30   32 1
    38   33   35 2
    39   33   36 1
    40   34   35 1
    41   34   37 2
    42   36   38 2
    43   37   38 1
    44   38   39 1
    45   39   40 1
    46    3   42 1
    47    5   43 1
    48    6   44 1
    49    7   45 1
    50   11   46 1
    51   14   47 1
    52   15   48 1
    53   17   49 1
    54   18   50 1
    55   19   51 1
    56   27   52 1
    57   27   53 1
    58   28   54 1
    59   28   55 1
    60   29   56 1
    61   29   57 1
    62   30   58 1
    63   30   59 1
    64   31   60 1
    65   31   61 1
    66   34   62 1
    67   35   63 1
    68   39   64 1
    69   40   65 1
    70   40   66 1
    71   40   67 1
@<TRIPOS>PROPERTY_DATA
  Total_Score	| 12.8034
  Crash		| -1.8231
  Polar		| 3.0757
  FragIndex	| 1
  FragRMSD	| 0.583

