@<TRIPOS>MOLECULE
BindingDB_50209227
 60 62 0 0 0
SMALL
NO_CHARGES


@<TRIPOS>ATOM
1    C        21.0183   15.8799  106.4463  C     
2    C        21.0622   14.9709  107.5353  C     
3    C        22.2228   14.1522  107.6640  C     
4    C        23.2790   14.2536  106.7347  C     
5    C        23.2066   15.1564  105.6605  C     
6    C        22.0756   15.9793  105.5268  C     
7    F        22.0096   16.8300  104.5396  F     
8    F        22.4103   13.3376  108.6697  F     
9    C        19.9629   14.8775  108.4108  C     
10   C        19.0138   15.9309  108.6924  C     
11   N        18.0739   15.3621  109.6095  N     
12   C        18.3544   13.9433  109.7916  C     
13   C        19.5699   13.7763  109.0411  C     
14   C        16.9844   15.9700  110.1585  C     
15   C        18.6656   13.5905  111.2379  C     
16   C        18.1341   12.4447  111.8830  C     
17   C        18.3860   12.1742  113.2388  C     
18   C        19.2037   13.0290  113.9870  C     
19   C        19.7671   14.1575  113.3768  C     
20   C        19.5049   14.4323  112.0197  C     
21   C        17.2206   13.0698  109.1031  C     
22   C        16.3680   13.6639  107.9237  C     
23   C        17.0218   13.6558  106.5204  C     
24   N        16.6992   12.4419  105.7340  N     
25   O        16.3279   15.2468  110.9063  O     
26   N        16.5074   17.2343  110.0064  N     
27   C        17.1589   18.2997  109.2479  C     
28   C        15.1854   17.5542  110.5433  C     
29   C        15.5652   12.4591  104.7660  C     
30   C        14.2572   13.2141  105.1326  C     
31   H        20.2136   16.4909  106.2956  H     
32   H        24.1137   13.6640  106.8328  H     
33   H        23.9812   15.2265  104.9973  H     
34   H        19.5476   16.7677  109.1434  H     
35   H        18.5076   16.2299  107.7739  H     
36   H        20.0058   12.8882  108.9396  H     
37   H        17.5647   11.7699  111.3720  H     
38   H        17.9821   11.3440  113.6732  H     
39   H        19.3847   12.8216  114.9673  H     
40   H        20.3730   14.7706  113.9228  H     
41   H        19.9431   15.2616  111.6098  H     
42   H        17.6277   12.1140  108.7757  H     
43   H        16.4926   12.8274  109.8794  H     
44   H        15.4646   13.0583  107.8599  H     
45   H        16.0418   14.6747  108.1480  H     
46   H        16.7187   14.5400  105.9511  H     
47   H        18.1002   13.6907  106.6151  H     
48   H        17.5341   12.2177  105.1843  H     
49   H        16.5391   11.6648  106.3888  H     
50   H        18.1355   18.5190  109.6706  H     
51   H        16.6381   19.2554  109.2659  H     
52   H        17.2518   18.0346  108.1937  H     
53   H        14.4322   16.9309  110.0439  H     
54   H        14.8737   18.5907  110.4412  H     
55   H        15.1616   17.3394  111.6148  H     
56   H        15.9330   12.8771  103.8167  H     
57   H        15.2720   11.4107  104.5763  H     
58   H        13.7533   12.7420  105.9824  H     
59   H        13.5704   13.1985  104.2770  H     
60   H        14.4769   14.2562  105.3677  H     
@<TRIPOS>BOND
     1    1    2 2
     2    1    6 1
     3    2    3 1
     4    2    9 1
     5    3    4 2
     6    3    8 1
     7    4    5 1
     8    5    6 2
     9    6    7 1
    10    9   10 1
    11    9   13 2
    12   10   11 1
    13   11   12 1
    14   11   14 1
    15   12   13 1
    16   12   15 1
    17   12   21 1
    18   14   25 2
    19   14   26 am
    20   15   16 2
    21   15   20 1
    22   16   17 1
    23   17   18 2
    24   18   19 1
    25   19   20 2
    26   21   22 1
    27   22   23 1
    28   23   24 1
    29   24   29 1
    30   26   27 1
    31   26   28 1
    32   29   30 1
    33    1   31 1
    34    4   32 1
    35    5   33 1
    36   10   34 1
    37   10   35 1
    38   13   36 1
    39   16   37 1
    40   17   38 1
    41   18   39 1
    42   19   40 1
    43   20   41 1
    44   21   42 1
    45   21   43 1
    46   22   44 1
    47   22   45 1
    48   23   46 1
    49   23   47 1
    50   24   48 1
    51   24   49 1
    52   27   50 1
    53   27   51 1
    54   27   52 1
    55   28   53 1
    56   28   54 1
    57   28   55 1
    58   29   56 1
    59   29   57 1
    60   30   58 1
    61   30   59 1
    62   30   60 1
@<TRIPOS>PROPERTY_DATA
  Total_Score	| 10.0239
  Crash		| -1.8479
  Polar		| 3.0521
  FragIndex	| 1
  FragRMSD	| 0.451

