@<TRIPOS>MOLECULE
BindingDB_50209229
 60 62 0 0 0
SMALL
NO_CHARGES


@<TRIPOS>ATOM
1    C        20.9888   15.8441  106.3815  C     
2    C        21.0716   14.9429  107.4739  C     
3    C        22.2503   14.1537  107.5912  C     
4    C        23.2870   14.2563  106.6390  C     
5    C        23.1706   15.1460  105.5594  C     
6    C        22.0220   15.9402  105.4300  C     
7    F        21.9169   16.7648  104.4225  F     
8    F        22.4430   13.3397  108.5981  F     
9    C        20.0036   14.8499  108.3847  C     
10   C        19.0386   15.8851  108.6616  C     
11   N        18.1751   15.3451  109.6717  N     
12   C        18.4153   13.9136  109.7976  C     
13   C        19.6728   13.7673  109.0887  C     
14   C        17.1968   16.0071  110.3401  C     
15   C        18.6755   13.5123  111.2409  C     
16   C        18.0369   12.4092  111.8615  C     
17   C        18.2144   12.1341  113.2341  C     
18   C        19.0455   12.9484  114.0222  C     
19   C        19.6796   14.0564  113.4393  C     
20   C        19.5028   14.3279  112.0683  C     
21   C        17.3404   13.1066  108.9325  C     
22   C        16.3996   13.8327  107.8980  C     
23   C        16.7869   13.7271  106.3919  C     
24   N        16.5693   12.4116  105.7336  N     
25   O        16.7122   15.3989  111.2976  O     
26   N        16.6232   17.2050  110.0883  N     
27   C        17.2921   18.2812  109.4019  C     
28   C        15.2255   17.4046  110.4474  C     
29   C        15.3933   12.2971  104.8336  C     
30   C        14.8251   10.8557  104.7880  C     
31   F        15.3959   10.0493  105.7517  F     
32   F        13.4630   10.8722  105.0009  F     
33   H        20.1652   16.4355  106.2475  H     
34   H        24.1338   13.6900  106.7306  H     
35   H        23.9255   15.2210  104.8713  H     
36   H        19.5703   16.7633  109.0348  H     
37   H        18.4570   16.1150  107.7674  H     
38   H        20.1453   12.8949  109.0177  H     
39   H        17.4028   11.8110  111.3331  H     
40   H        17.7369   11.3354  113.6606  H     
41   H        19.1677   12.7480  115.0187  H     
42   H        20.2580   14.6727  114.0167  H     
43   H        19.9586   15.1595  111.6826  H     
44   H        17.8572   12.3248  108.3540  H     
45   H        16.7127   12.5593  109.6391  H     
46   H        15.3786   13.4698  108.0180  H     
47   H        16.3465   14.8910  108.0904  H     
48   H        16.2188   14.4720  105.8200  H     
49   H        17.8405   13.9921  106.2542  H     
50   H        17.4006   12.2269  105.1546  H     
51   H        16.5147   11.6820  106.4494  H     
52   H        18.2427   18.5016  109.8854  H     
53   H        16.7215   19.2094  109.4075  H     
54   H        17.4445   18.0416  108.3543  H     
55   H        14.6140   16.6751  109.9114  H     
56   H        14.8295   18.3934  110.1980  H     
57   H        15.0631   17.2555  111.5164  H     
58   H        14.6065   12.9758  105.1778  H     
59   H        15.6701   12.5834  103.8105  H     
60   H        15.0167   10.4111  103.8058  H     
@<TRIPOS>BOND
     1    1    2 2
     2    1    6 1
     3    2    3 1
     4    2    9 1
     5    3    4 2
     6    3    8 1
     7    4    5 1
     8    5    6 2
     9    6    7 1
    10    9   10 1
    11    9   13 2
    12   10   11 1
    13   11   12 1
    14   11   14 1
    15   12   13 1
    16   12   15 1
    17   12   21 1
    18   14   25 2
    19   14   26 am
    20   15   16 2
    21   15   20 1
    22   16   17 1
    23   17   18 2
    24   18   19 1
    25   19   20 2
    26   21   22 1
    27   22   23 1
    28   23   24 1
    29   24   29 1
    30   26   27 1
    31   26   28 1
    32   29   30 1
    33   30   31 1
    34   30   32 1
    35    1   33 1
    36    4   34 1
    37    5   35 1
    38   10   36 1
    39   10   37 1
    40   13   38 1
    41   16   39 1
    42   17   40 1
    43   18   41 1
    44   19   42 1
    45   20   43 1
    46   21   44 1
    47   21   45 1
    48   22   46 1
    49   22   47 1
    50   23   48 1
    51   23   49 1
    52   24   50 1
    53   24   51 1
    54   27   52 1
    55   27   53 1
    56   27   54 1
    57   28   55 1
    58   28   56 1
    59   28   57 1
    60   29   58 1
    61   29   59 1
    62   30   60 1
@<TRIPOS>PROPERTY_DATA
  Total_Score	| 11.0914
  Crash		| -1.8169
  Polar		| 3.0713
  FragIndex	| 1
  FragRMSD	| 0.461

