@<TRIPOS>MOLECULE
BindingDB_50209231
 60 62 0 0 0
SMALL
NO_CHARGES


@<TRIPOS>ATOM
1    C        21.0263   15.9202  106.4775  C     
2    C        21.0763   14.9775  107.5401  C     
3    C        22.2373   14.1499  107.6194  C     
4    C        23.2726   14.2569  106.6644  C     
5    C        23.1774   15.1811  105.6115  C     
6    C        22.0515   16.0154  105.5191  C     
7    F        21.9626   16.8801  104.5422  F     
8    F        22.4276   13.2986  108.5890  F     
9    C        19.9949   14.8814  108.4453  C     
10   C        19.0479   15.9231  108.7612  C     
11   N        18.0947   15.3393  109.6692  N     
12   C        18.3898   13.9181  109.8388  C     
13   C        19.6146   13.7738  109.0876  C     
14   C        17.0051   15.9538  110.2044  C     
15   C        18.7145   13.5820  111.2867  C     
16   C        18.1922   12.4416  111.9602  C     
17   C        18.4536   12.1898  113.3221  C     
18   C        19.2920   13.0509  114.0475  C     
19   C        19.8526   14.1685  113.4103  C     
20   C        19.5702   14.4226  112.0534  C     
21   C        17.2675   13.0122  109.1676  C     
22   C        16.3979   13.5699  107.9983  C     
23   C        17.0336   13.5604  106.5780  C     
24   N        16.6487   12.4105  105.7193  N     
25   O        16.2977   15.2260  110.8885  O     
26   N        16.5636   17.2345  110.0991  N     
27   C        15.1771   17.5552  110.4070  C     
28   C        17.4128   18.3319  109.6771  C     
29   C        15.4812   12.5337  104.8054  C     
30   C        15.5464   13.6601  103.7361  C     
31   F        14.5541   13.4844  102.8058  F     
32   F        15.3620   14.8987  104.3009  F     
33   F        16.7537   13.6315  103.0843  F     
34   H        20.2189   16.5352  106.3563  H     
35   H        24.1023   13.6637  106.7353  H     
36   H        23.9296   15.2511  104.9236  H     
37   H        19.5927   16.7442  109.2281  H     
38   H        18.5338   16.2511  107.8592  H     
39   H        20.0756   12.8949  108.9924  H     
40   H        17.6053   11.7602  111.4755  H     
41   H        18.0435   11.3719  113.7767  H     
42   H        19.4897   12.8534  115.0265  H     
43   H        20.4715   14.7878  113.9367  H     
44   H        19.9994   15.2476  111.6258  H     
45   H        17.7085   12.0651  108.8479  H     
46   H        16.5450   12.7651  109.9471  H     
47   H        15.4682   12.9967  107.9614  H     
48   H        16.0925   14.5920  108.2297  H     
49   H        16.7862   14.4890  106.0641  H     
50   H        18.1183   13.5442  106.6613  H     
51   H        17.4691   12.2002  105.1446  H     
52   H        16.4800   11.6108  106.3246  H     
53   H        14.5197   16.9617  109.7689  H     
54   H        14.9077   18.5970  110.2501  H     
55   H        14.9519   17.3239  111.4498  H     
56   H        18.3189   18.3626  110.2885  H     
57   H        16.9423   19.3089  109.7809  H     
58   H        17.6797   18.2365  108.6265  H     
59   H        15.3841   11.5791  104.2771  H     
60   H        14.5697   12.6462  105.4027  H     
@<TRIPOS>BOND
     1    1    2 2
     2    1    6 1
     3    2    3 1
     4    2    9 1
     5    3    4 2
     6    3    8 1
     7    4    5 1
     8    5    6 2
     9    6    7 1
    10    9   10 1
    11    9   13 2
    12   10   11 1
    13   11   12 1
    14   11   14 1
    15   12   13 1
    16   12   15 1
    17   12   21 1
    18   14   25 2
    19   14   26 am
    20   15   16 2
    21   15   20 1
    22   16   17 1
    23   17   18 2
    24   18   19 1
    25   19   20 2
    26   21   22 1
    27   22   23 1
    28   23   24 1
    29   24   29 1
    30   26   27 1
    31   26   28 1
    32   29   30 1
    33   30   31 1
    34   30   32 1
    35   30   33 1
    36    1   34 1
    37    4   35 1
    38    5   36 1
    39   10   37 1
    40   10   38 1
    41   13   39 1
    42   16   40 1
    43   17   41 1
    44   18   42 1
    45   19   43 1
    46   20   44 1
    47   21   45 1
    48   21   46 1
    49   22   47 1
    50   22   48 1
    51   23   49 1
    52   23   50 1
    53   24   51 1
    54   24   52 1
    55   27   53 1
    56   27   54 1
    57   27   55 1
    58   28   56 1
    59   28   57 1
    60   28   58 1
    61   29   59 1
    62   29   60 1
@<TRIPOS>PROPERTY_DATA
  Total_Score	| 10.4797
  Crash		| -1.8828
  Polar		| 2.9501
  FragIndex	| 1
  FragRMSD	| 0.390

