@<TRIPOS>MOLECULE
BindingDB_50351187
 41 43 0 0 0
SMALL
NO_CHARGES


@<TRIPOS>ATOM
1    C        -3.8147   31.8692   -5.2117  C     
2    C        -5.0767   31.8313   -5.8725  C     
3    C        -5.9154   30.7011   -5.7145  C     
4    C        -3.4355   30.7806   -4.3885  C     
5    C        -4.2761   29.6620   -4.2189  C     
6    C        -5.5195   29.6272   -4.8950  C     
7    N        -6.3524   28.5617   -4.7308  N     
8    C        -6.0367   27.5143   -3.9332  C     
9    N        -4.8511   27.5170   -3.2701  N     
10   C        -3.9648   28.5444   -3.3810  C     
11   N        -2.8252   28.4690   -2.6752  N     
12   N        -6.9024   26.5000   -3.7910  N     
13   C        -5.5642   32.9089   -6.6540  C     
14   C        -6.6211   33.7145   -6.1762  C     
15   C        -7.0898   34.8026   -6.9303  C     
16   C        -6.5100   35.1195   -8.1771  C     
17   C        -5.4358   34.3319   -8.6502  C     
18   C        -4.9769   33.2353   -7.8955  C     
19   O        -4.7112   34.6791   -9.7582  O     
20   C        -5.4012   34.5474  -11.0128  C     
21   O        -6.9231   36.2061   -8.9048  O     
22   C        -8.3089   36.1758   -9.2942  C     
23   C        -2.9074   33.0348   -5.3320  C     
24   H        -6.8147   30.6569   -6.1956  H     
25   H        -2.5391   30.8165   -3.8986  H     
26   H        -2.6515   27.7036   -2.1113  H     
27   H        -2.1592   29.1684   -2.7516  H     
28   H        -6.6956   25.7630   -3.1945  H     
29   H        -7.7491   26.5085   -4.2732  H     
30   H        -7.0511   33.5270   -5.2644  H     
31   H        -7.8481   35.3783   -6.5446  H     
32   H        -4.1977   32.6799   -8.2596  H     
33   H        -5.8461   33.5574  -11.1395  H     
34   H        -4.6677   34.6917  -11.8069  H     
35   H        -6.1754   35.3145  -11.1041  H     
36   H        -8.5620   35.2560   -9.8230  H     
37   H        -8.4953   37.0152   -9.9711  H     
38   H        -8.9623   36.2868   -8.4216  H     
39   H        -2.5751   33.1491   -6.3647  H     
40   H        -2.0163   32.9379   -4.7081  H     
41   H        -3.4422   33.9340   -5.0264  H     
@<TRIPOS>BOND
     1    1    2 2
     2    1    4 1
     3    1   23 1
     4    2    3 1
     5    2   13 1
     6    3    6 2
     7    4    5 2
     8    5    6 1
     9    5   10 1
    10    6    7 1
    11    7    8 2
    12    8    9 1
    13    8   12 1
    14    9   10 2
    15   10   11 1
    16   13   14 2
    17   13   18 1
    18   14   15 1
    19   15   16 2
    20   16   17 1
    21   16   21 1
    22   17   18 2
    23   17   19 1
    24   19   20 1
    25   21   22 1
    26    3   24 1
    27    4   25 1
    28   11   26 1
    29   11   27 1
    30   12   28 1
    31   12   29 1
    32   14   30 1
    33   15   31 1
    34   18   32 1
    35   20   33 1
    36   20   34 1
    37   20   35 1
    38   22   36 1
    39   22   37 1
    40   22   38 1
    41   23   39 1
    42   23   40 1
    43   23   41 1
@<TRIPOS>PROPERTY_DATA
  Total_Score	| 5.4242
  Crash		| -1.6037
  Polar		| 2.1153
  FragIndex	| 1
  FragRMSD	| 0.301

