@<TRIPOS>MOLECULE
BindingDB_50351186
 41 43 0 0 0
SMALL
NO_CHARGES


@<TRIPOS>ATOM
1    C        -3.7423   31.8314   -5.2408  C     
2    C        -4.9547   31.7714   -5.9856  C     
3    C        -5.7964   30.6422   -5.8454  C     
4    C        -3.4019   30.7584   -4.3820  C     
5    C        -4.2388   29.6331   -4.2480  C     
6    C        -5.4440   29.5841   -4.9873  C     
7    N        -6.2868   28.5227   -4.8349  N     
8    C        -6.0110   27.4951   -3.9980  C     
9    N        -4.8626   27.5192   -3.2795  N     
10   C        -3.9747   28.5403   -3.3747  C     
11   N        -2.8719   28.4729   -2.6146  N     
12   N        -6.8897   26.4902   -3.8534  N     
13   C        -5.3926   32.8649   -6.7910  C     
14   C        -6.5787   33.5361   -6.4054  C     
15   C        -7.0176   34.6997   -7.0782  C     
16   C        -6.2957   35.1387   -8.2033  C     
17   C        -5.1439   34.4522   -8.6302  C     
18   C        -4.6619   33.3194   -7.9231  C     
19   O        -3.5633   32.5865   -8.3218  O     
20   C        -2.4401   33.2492   -8.9283  C     
21   O        -8.1603   35.3831   -6.7440  O     
22   C        -8.2457   35.8350   -5.3698  C     
23   C        -2.8557   33.0272   -5.2719  C     
24   H        -6.6881   30.6015   -6.3483  H     
25   H        -2.5465   30.8118   -3.8247  H     
26   H        -2.7381   27.7196   -2.0241  H     
27   H        -2.2011   29.1690   -2.6724  H     
28   H        -6.7078   25.7737   -3.2176  H     
29   H        -7.7241   26.4962   -4.3480  H     
30   H        -7.1244   33.2032   -5.6073  H     
31   H        -6.6079   35.9652   -8.7258  H     
32   H        -4.6483   34.7777   -9.4630  H     
33   H        -2.6777   33.5445   -9.9569  H     
34   H        -1.6119   32.5429   -8.9610  H     
35   H        -2.1269   34.1238   -8.3554  H     
36   H        -8.3389   34.9873   -4.6807  H     
37   H        -9.1356   36.4571   -5.2587  H     
38   H        -7.3682   36.4327   -5.0869  H     
39   H        -2.4399   33.1647   -6.2668  H     
40   H        -2.0188   32.9477   -4.5657  H     
41   H        -3.4385   33.9058   -4.9934  H     
@<TRIPOS>BOND
     1    1    2 2
     2    1    4 1
     3    1   23 1
     4    2    3 1
     5    2   13 1
     6    3    6 2
     7    4    5 2
     8    5    6 1
     9    5   10 1
    10    6    7 1
    11    7    8 2
    12    8    9 1
    13    8   12 1
    14    9   10 2
    15   10   11 1
    16   13   14 2
    17   13   18 1
    18   14   15 1
    19   15   16 2
    20   15   21 1
    21   16   17 1
    22   17   18 2
    23   18   19 1
    24   19   20 1
    25   21   22 1
    26    3   24 1
    27    4   25 1
    28   11   26 1
    29   11   27 1
    30   12   28 1
    31   12   29 1
    32   14   30 1
    33   16   31 1
    34   17   32 1
    35   20   33 1
    36   20   34 1
    37   20   35 1
    38   22   36 1
    39   22   37 1
    40   22   38 1
    41   23   39 1
    42   23   40 1
    43   23   41 1
@<TRIPOS>PROPERTY_DATA
  Total_Score	| 5.6792
  Crash		| -1.5281
  Polar		| 2.0958
  FragIndex	| 1
  FragRMSD	| 0.339

