@<TRIPOS>MOLECULE
BindingDB_50351191
 32 34 0 0 0
SMALL
NO_CHARGES


@<TRIPOS>ATOM
1    C        -3.8318   32.0096   -5.1901  C     
2    C        -5.0971   32.0054   -5.8203  C     
3    C        -5.9463   30.8935   -5.6170  C     
4    C        -3.4167   30.9267   -4.3911  C     
5    C        -4.2545   29.8064   -4.2083  C     
6    C        -5.5371   29.8111   -4.8175  C     
7    N        -6.3724   28.7434   -4.6464  N     
8    C        -6.0208   27.6628   -3.9144  C     
9    N        -4.7963   27.6204   -3.3323  N     
10   C        -3.9113   28.6486   -3.4493  C     
11   N        -2.7212   28.5181   -2.8411  N     
12   N        -6.8879   26.6500   -3.7832  N     
13   C        -5.5016   33.0811   -6.6624  C     
14   C        -4.8136   33.3459   -7.8743  C     
15   C        -5.2132   34.4053   -8.7100  C     
16   C        -6.3080   35.2152   -8.3496  C     
17   C        -6.9993   34.9654   -7.1459  C     
18   C        -6.5946   33.9070   -6.3118  C     
19   N        -6.6866   36.2265   -9.1477  N     
20   H        -3.2045   32.8113   -5.3095  H     
21   H        -6.8690   30.8604   -6.0677  H     
22   H        -2.4991   30.9761   -3.9425  H     
23   H        -2.5139   27.7138   -2.3473  H     
24   H        -2.0629   29.2250   -2.9113  H     
25   H        -6.6566   25.8727   -3.2476  H     
26   H        -7.7564   26.6954   -4.2207  H     
27   H        -4.0266   32.7622   -8.1610  H     
28   H        -4.7027   34.5783   -9.5789  H     
29   H        -7.7906   35.5565   -6.8656  H     
30   H        -7.1020   33.7502   -5.4357  H     
31   H        -7.4356   36.7946   -8.8957  H     
32   H        -6.2005   36.4039   -9.9708  H     
@<TRIPOS>BOND
     1    1    2 2
     2    1    4 1
     3    2    3 1
     4    2   13 1
     5    3    6 2
     6    4    5 2
     7    5    6 1
     8    5   10 1
     9    6    7 1
    10    7    8 2
    11    8    9 1
    12    8   12 1
    13    9   10 2
    14   10   11 1
    15   13   14 2
    16   13   18 1
    17   14   15 1
    18   15   16 2
    19   16   17 1
    20   16   19 1
    21   17   18 2
    22    1   20 1
    23    3   21 1
    24    4   22 1
    25   11   23 1
    26   11   24 1
    27   12   25 1
    28   12   26 1
    29   14   27 1
    30   15   28 1
    31   17   29 1
    32   18   30 1
    33   19   31 1
    34   19   32 1
@<TRIPOS>PROPERTY_DATA
  Total_Score	| 4.7177
  Crash		| -0.5064
  Polar		| 2.2317
  FragIndex	| 1
  FragRMSD	| 0.334

