@<TRIPOS>MOLECULE
BindingDB_50351188
 34 36 0 0 0
SMALL
NO_CHARGES


@<TRIPOS>ATOM
1    C        -8.5991   36.2803   -7.4571  C     
2    C        -7.6631   35.7449   -6.5444  C     
3    C        -7.7645   36.1174   -5.1816  C     
4    C        -9.6286   37.1389   -7.0237  C     
5    C        -9.7460   37.4811   -5.6569  C     
6    C        -8.7928   36.9717   -4.7373  C     
7    N        -8.8642   37.3213   -3.4169  N     
8    C        -9.8484   38.1271   -2.9509  C     
9    N       -10.7989   38.5976   -3.7962  N     
10   C       -10.7861   38.3039   -5.1216  C     
11   N       -11.7933   38.7899   -5.8680  N     
12   N        -9.8774   38.4631   -1.6480  N     
13   C        -6.6046   34.8992   -7.0023  C     
14   C        -5.8724   35.2915   -8.1610  C     
15   C        -4.7933   34.5245   -8.6368  C     
16   C        -4.4187   33.3488   -7.9597  C     
17   C        -5.1235   32.9433   -6.8076  C     
18   C        -6.2115   33.7087   -6.3116  C     
19   O        -6.8911   33.3840   -5.1463  O     
20   C        -7.0842   32.0161   -4.7439  C     
21   H        -8.5594   36.0322   -8.4506  H     
22   H        -7.0806   35.7680   -4.5062  H     
23   H       -10.2988   37.4875   -7.7144  H     
24   H       -12.4970   39.3244   -5.4569  H     
25   H       -11.8364   38.5855   -6.8173  H     
26   H       -10.5837   39.0314   -1.3029  H     
27   H        -9.1822   38.1449   -1.0485  H     
28   H        -6.1022   36.1660   -8.6511  H     
29   H        -4.2632   34.8188   -9.4661  H     
30   H        -3.6274   32.7935   -8.3018  H     
31   H        -4.8091   32.0936   -6.3182  H     
32   H        -7.3487   31.3796   -5.5963  H     
33   H        -7.9165   31.9776   -4.0323  H     
34   H        -6.1715   31.6376   -4.2685  H     
@<TRIPOS>BOND
     1    1    2 2
     2    1    4 1
     3    2    3 1
     4    2   13 1
     5    3    6 2
     6    4    5 2
     7    5    6 1
     8    5   10 1
     9    6    7 1
    10    7    8 2
    11    8    9 1
    12    8   12 1
    13    9   10 2
    14   10   11 1
    15   13   14 2
    16   13   18 1
    17   14   15 1
    18   15   16 2
    19   16   17 1
    20   17   18 2
    21   18   19 1
    22   19   20 1
    23    1   21 1
    24    3   22 1
    25    4   23 1
    26   11   24 1
    27   11   25 1
    28   12   26 1
    29   12   27 1
    30   14   28 1
    31   15   29 1
    32   16   30 1
    33   17   31 1
    34   20   32 1
    35   20   33 1
    36   20   34 1
@<TRIPOS>PROPERTY_DATA
  Total_Score	| 1.5370
  Crash		| -0.8733
  Polar		| 0.0000
  FragIndex	| 1
  FragRMSD	| 0.380

