@<TRIPOS>MOLECULE
BindingDB_50351194
 36 38 0 0 0
SMALL
NO_CHARGES


@<TRIPOS>ATOM
1    C        -3.7904   31.9476   -5.2413  C     
2    C        -5.0938   31.9441   -5.7824  C     
3    C        -5.9382   30.8399   -5.5274  C     
4    C        -3.3308   30.8748   -4.4558  C     
5    C        -4.1701   29.7632   -4.2095  C     
6    C        -5.4748   29.7512   -4.7582  C     
7    N        -6.2836   28.6692   -4.5557  N     
8    C        -5.8784   27.5896   -3.8470  C     
9    N        -4.6386   27.5789   -3.2993  N     
10   C        -3.7824   28.6246   -3.4455  C     
11   N        -2.5838   28.5352   -2.8598  N     
12   N        -6.7128   26.5490   -3.6934  N     
13   C        -5.5494   33.0373   -6.5668  C     
14   C        -4.8876   33.3781   -7.7686  C     
15   C        -5.3231   34.4741   -8.5407  C     
16   C        -6.4257   35.2453   -8.1248  C     
17   C        -7.0835   34.9157   -6.9207  C     
18   C        -6.6520   33.8135   -6.1558  C     
19   S        -6.9140   36.6450   -9.0533  S     
20   C        -8.7015   36.6988   -9.2810  C     
21   O        -6.4694   37.9553   -8.2778  O     
22   O        -6.2286   36.6740  -10.4866  O     
23   H        -3.1636   32.7428   -5.3937  H     
24   H        -6.8845   30.8072   -5.9176  H     
25   H        -2.3852   30.9138   -4.0728  H     
26   H        -2.3325   27.7388   -2.3727  H     
27   H        -1.9511   29.2596   -2.9462  H     
28   H        -6.4324   25.7812   -3.1714  H     
29   H        -7.5975   26.5677   -4.1054  H     
30   H        -4.0966   32.8262   -8.1065  H     
31   H        -4.8186   34.6997   -9.3997  H     
32   H        -7.8674   35.4828   -6.5798  H     
33   H        -7.1331   33.6090   -5.2735  H     
34   H        -9.0366   35.7740   -9.7488  H     
35   H        -8.9519   37.5415   -9.9243  H     
36   H        -9.1994   36.8192   -8.3190  H     
@<TRIPOS>BOND
     1    1    2 2
     2    1    4 1
     3    2    3 1
     4    2   13 1
     5    3    6 2
     6    4    5 2
     7    5    6 1
     8    5   10 1
     9    6    7 1
    10    7    8 2
    11    8    9 1
    12    8   12 1
    13    9   10 2
    14   10   11 1
    15   13   14 2
    16   13   18 1
    17   14   15 1
    18   15   16 2
    19   16   17 1
    20   16   19 1
    21   17   18 2
    22   19   20 1
    23   19   21 2
    24   19   22 2
    25    1   23 1
    26    3   24 1
    27    4   25 1
    28   11   26 1
    29   11   27 1
    30   12   28 1
    31   12   29 1
    32   14   30 1
    33   15   31 1
    34   17   32 1
    35   18   33 1
    36   20   34 1
    37   20   35 1
    38   20   36 1
@<TRIPOS>PROPERTY_DATA
  Total_Score	| 4.6417
  Crash		| -0.6564
  Polar		| 1.8358
  FragIndex	| 1
  FragRMSD	| 0.573

