@<TRIPOS>MOLECULE
BindingDB_50351183
 37 39 0 0 0
SMALL
NO_CHARGES


@<TRIPOS>ATOM
1    C        -3.7852   31.9928   -5.1350  C     
2    C        -5.0359   31.9871   -5.7848  C     
3    C        -5.8894   30.8756   -5.6051  C     
4    C        -3.3824   30.9193   -4.3247  C     
5    C        -4.2242   29.8016   -4.1592  C     
6    C        -5.4839   29.7890   -4.8059  C     
7    N        -6.2954   28.7047   -4.6674  N     
8    C        -5.9395   27.6199   -3.9397  C     
9    N        -4.7394   27.6087   -3.3072  N     
10   C        -3.8792   28.6559   -3.3810  C     
11   N        -2.7115   28.5609   -2.7249  N     
12   N        -6.7773   26.5754   -3.8549  N     
13   C        -5.4119   33.0685   -6.6315  C     
14   C        -6.4697   33.9167   -6.2314  C     
15   C        -6.8919   34.9758   -7.0523  C     
16   C        -6.2703   35.1897   -8.2929  C     
17   C        -5.2220   34.3512   -8.7059  C     
18   C        -4.7607   33.3022   -7.8743  C     
19   O        -3.7676   32.4234   -8.2534  O     
20   C        -2.4671   32.8533   -8.7070  C     
21   C        -1.7909   33.9594   -7.8591  C     
22   H        -3.1488   32.7783   -5.2523  H     
23   H        -6.7993   30.8406   -6.0741  H     
24   H        -2.4708   30.9620   -3.8692  H     
25   H        -2.4978   27.7638   -2.2179  H     
26   H        -2.0640   29.2775   -2.7836  H     
27   H        -6.5302   25.7975   -3.3288  H     
28   H        -7.6333   26.5985   -4.3165  H     
29   H        -6.9342   33.7729   -5.3308  H     
30   H        -7.6615   35.5809   -6.7548  H     
31   H        -6.5867   35.9496   -8.8991  H     
32   H        -4.8007   34.5091   -9.6234  H     
33   H        -1.8273   31.9692   -8.6757  H     
34   H        -2.5245   33.1699   -9.7526  H     
35   H        -2.3269   34.9053   -7.9736  H     
36   H        -0.7640   34.0976   -8.2053  H     
37   H        -1.7632   33.6991   -6.7994  H     
@<TRIPOS>BOND
     1    1    2 2
     2    1    4 1
     3    2    3 1
     4    2   13 1
     5    3    6 2
     6    4    5 2
     7    5    6 1
     8    5   10 1
     9    6    7 1
    10    7    8 2
    11    8    9 1
    12    8   12 1
    13    9   10 2
    14   10   11 1
    15   13   14 2
    16   13   18 1
    17   14   15 1
    18   15   16 2
    19   16   17 1
    20   17   18 2
    21   18   19 1
    22   19   20 1
    23   20   21 1
    24    1   22 1
    25    3   23 1
    26    4   24 1
    27   11   25 1
    28   11   26 1
    29   12   27 1
    30   12   28 1
    31   14   29 1
    32   15   30 1
    33   16   31 1
    34   17   32 1
    35   20   33 1
    36   20   34 1
    37   21   35 1
    38   21   36 1
    39   21   37 1
@<TRIPOS>PROPERTY_DATA
  Total_Score	| 5.6922
  Crash		| -0.7659
  Polar		| 2.1014
  FragIndex	| 1
  FragRMSD	| 0.734

