@<TRIPOS>MOLECULE
BindingDB_50351195
 43 45 0 0 0
SMALL
NO_CHARGES


@<TRIPOS>ATOM
1    C        -3.4872   31.8147   -5.2223  C     
2    C        -4.7542   31.9646   -5.8610  C     
3    C        -5.7112   30.9279   -5.6605  C     
4    C        -3.2451   30.7153   -4.3689  C     
5    C        -4.2185   29.7294   -4.1466  C     
6    C        -5.4508   29.8213   -4.8294  C     
7    N        -6.3664   28.8173   -4.6804  N     
8    C        -6.1312   27.7338   -3.8999  C     
9    N        -4.9681   27.6468   -3.2140  N     
10   C        -4.0161   28.6089   -3.2944  C     
11   N        -2.9153   28.4719   -2.5408  N     
12   N        -7.0386   26.7518   -3.7950  N     
13   C        -5.1558   33.1124   -6.6440  C     
14   C        -6.2528   33.8770   -6.1555  C     
15   C        -6.8187   34.9444   -6.8830  C     
16   C        -6.2850   35.2505   -8.1476  C     
17   C        -5.1808   34.5388   -8.6394  C     
18   C        -4.5736   33.5030   -7.8894  C     
19   C        -7.9447   35.7200   -6.3144  C     
20   O        -3.4685   32.8333   -8.3799  O     
21   C        -2.2106   33.4931   -8.6385  C     
22   C        -1.7030   33.1044  -10.0420  C     
23   C        -2.3005   32.6458   -5.4944  C     
24   H        -6.6211   30.9695   -6.1302  H     
25   H        -2.3304   30.6143   -3.9261  H     
26   H        -2.8284   27.7140   -1.9491  H     
27   H        -2.2115   29.1384   -2.5763  H     
28   H        -6.8598   25.9840   -3.2312  H     
29   H        -7.8706   26.8027   -4.2880  H     
30   H        -6.6591   33.6534   -5.2418  H     
31   H        -6.6864   36.0015   -8.7126  H     
32   H        -4.8230   34.7917   -9.5601  H     
33   H        -8.7772   35.0552   -6.0932  H     
34   H        -8.3024   36.4912   -6.9979  H     
35   H        -7.6252   36.2056   -5.3917  H     
36   H        -2.2770   34.5796   -8.5418  H     
37   H        -1.4826   33.1455   -7.9054  H     
38   H        -2.4494   33.3588  -10.7996  H     
39   H        -1.5058   32.0304  -10.0932  H     
40   H        -0.7793   33.6446  -10.2632  H     
41   H        -1.7588   32.1025   -6.2817  H     
42   H        -1.6615   32.7619   -4.6147  H     
43   H        -2.5665   33.6467   -5.8226  H     
@<TRIPOS>BOND
     1    1    2 2
     2    1    4 1
     3    1   23 1
     4    2    3 1
     5    2   13 1
     6    3    6 2
     7    4    5 2
     8    5    6 1
     9    5   10 1
    10    6    7 1
    11    7    8 2
    12    8    9 1
    13    8   12 1
    14    9   10 2
    15   10   11 1
    16   13   14 2
    17   13   18 1
    18   14   15 1
    19   15   16 2
    20   15   19 1
    21   16   17 1
    22   17   18 2
    23   18   20 1
    24   20   21 1
    25   21   22 1
    26    3   24 1
    27    4   25 1
    28   11   26 1
    29   11   27 1
    30   12   28 1
    31   12   29 1
    32   14   30 1
    33   16   31 1
    34   17   32 1
    35   19   33 1
    36   19   34 1
    37   19   35 1
    38   21   36 1
    39   21   37 1
    40   22   38 1
    41   22   39 1
    42   22   40 1
    43   23   41 1
    44   23   42 1
    45   23   43 1
@<TRIPOS>PROPERTY_DATA
  Total_Score	| 5.7505
  Crash		| -1.7363
  Polar		| 2.1696
  FragIndex	| 1
  FragRMSD	| 0.662

