@<TRIPOS>MOLECULE
BindingDB_50351174
 46 49 0 0 0
SMALL
NO_CHARGES


@<TRIPOS>ATOM
1    C        -8.3099   36.0867   -7.5290  C     
2    C        -7.2997   35.6284   -6.6277  C     
3    C        -7.3912   35.9842   -5.2618  C     
4    C        -9.3733   36.8853   -7.0273  C     
5    C        -9.4881   37.1830   -5.6535  C     
6    C        -8.4819   36.7235   -4.7693  C     
7    N        -8.5832   36.9723   -3.4323  N     
8    C        -9.6275   37.6591   -2.9089  C     
9    N       -10.6084   38.1073   -3.7266  N     
10   C       -10.5802   37.8961   -5.0710  C     
11   N       -11.6153   38.3670   -5.7868  N     
12   N        -9.6868   37.8971   -1.5870  N     
13   C        -6.1807   34.8250   -7.0457  C     
14   C        -3.9975   33.2745   -7.9899  C     
15   C        -4.2856   34.5250   -8.5682  C     
16   C        -5.3443   35.3251   -8.0870  C     
17   O        -5.5694   36.6249   -8.5224  O     
18   C        -4.8571   37.1903   -9.6459  C     
19   C        -5.1585   38.7089   -9.7292  C     
20   C        -8.3111   35.7220   -8.9764  C     
21   C        -4.7467   32.8169   -6.8943  C     
22   C        -5.8550   33.5818   -6.4117  C     
23   C        -6.5288   33.0556   -5.2873  C     
24   C        -6.1068   31.9299   -4.6718  C     
25   C        -5.0447   31.2253   -5.1447  C     
26   C        -4.3861   31.6263   -6.2469  C     
27   H        -6.6673   35.6802   -4.6032  H     
28   H       -10.0999   37.2088   -7.6710  H     
29   H       -12.3351   38.8358   -5.3374  H     
30   H       -11.6557   38.2304   -6.7476  H     
31   H       -10.4281   38.4009   -1.2129  H     
32   H        -8.9773   37.5862   -1.0032  H     
33   H        -3.2131   32.7338   -8.3601  H     
34   H        -3.6869   34.8520   -9.3261  H     
35   H        -3.7723   37.0628   -9.5218  H     
36   H        -5.1737   36.7108  -10.5822  H     
37   H        -6.2020   38.8651  -10.0228  H     
38   H        -4.5032   39.1896  -10.4677  H     
39   H        -4.9889   39.1817   -8.7543  H     
40   H        -7.4248   36.1217   -9.4780  H     
41   H        -9.1867   36.1099   -9.5098  H     
42   H        -8.3119   34.6317   -9.0780  H     
43   H        -7.3164   33.5152   -4.9049  H     
44   H        -6.5736   31.6106   -3.8577  H     
45   H        -4.7566   30.3963   -4.6765  H     
46   H        -3.6159   31.0852   -6.5706  H     
@<TRIPOS>BOND
     1    1    2 2
     2    1    4 1
     3    1   20 1
     4    2    3 1
     5    2   13 1
     6    3    6 2
     7    4    5 2
     8    5    6 1
     9    5   10 1
    10    6    7 1
    11    7    8 2
    12    8    9 1
    13    8   12 1
    14    9   10 2
    15   10   11 1
    16   13   16 1
    17   13   22 2
    18   14   15 1
    19   14   21 2
    20   15   16 2
    21   16   17 1
    22   17   18 1
    23   18   19 1
    24   21   22 1
    25   21   26 1
    26   22   23 1
    27   23   24 2
    28   24   25 1
    29   25   26 2
    30    3   27 1
    31    4   28 1
    32   11   29 1
    33   11   30 1
    34   12   31 1
    35   12   32 1
    36   14   33 1
    37   15   34 1
    38   18   35 1
    39   18   36 1
    40   19   37 1
    41   19   38 1
    42   19   39 1
    43   20   40 1
    44   20   41 1
    45   20   42 1
    46   23   43 1
    47   24   44 1
    48   25   45 1
    49   26   46 1
@<TRIPOS>PROPERTY_DATA
  Total_Score	| 2.1902
  Crash		| -0.9959
  Polar		| 0.0000
  FragIndex	| 1
  FragRMSD	| 1.032

