@<TRIPOS>MOLECULE
BindingDB_50351175
 55 58 0 0 0
SMALL
NO_CHARGES


@<TRIPOS>ATOM
1    C        -3.7704   32.0087   -5.1597  C     
2    C        -5.0244   32.0166   -5.8127  C     
3    C        -5.8829   30.9043   -5.6428  C     
4    C        -3.3663   30.9086   -4.3822  C     
5    C        -4.2094   29.7894   -4.2307  C     
6    C        -5.4837   29.8014   -4.8622  C     
7    N        -6.3192   28.7344   -4.7100  N     
8    C        -5.9804   27.6468   -3.9795  C     
9    N        -4.7678   27.6016   -3.3765  N     
10   C        -3.8776   28.6216   -3.4724  C     
11   N        -2.6965   28.4831   -2.8414  N     
12   N        -6.8527   26.6333   -3.8617  N     
13   C        -5.4158   33.1309   -6.6112  C     
14   C        -6.5241   33.9201   -6.2155  C     
15   C        -6.9407   35.0652   -6.9489  C     
16   C        -6.2446   35.3506   -8.1500  C     
17   C        -5.1801   34.5457   -8.5861  C     
18   C        -4.7217   33.4641   -7.8033  C     
19   C        -8.0132   35.9112   -6.4935  C     
20   O        -3.7116   32.6685   -8.2858  O     
21   C        -2.3808   33.2262   -8.2515  C     
22   C        -1.4329   32.3203   -9.0644  C     
23   C        -8.8345   36.6224   -7.4085  C     
24   C        -9.8495   37.4859   -6.9588  C     
25   C       -10.1052   37.6244   -5.5854  C     
26   C        -9.3504   36.8871   -4.6528  C     
27   C        -8.2844   36.0734   -5.1058  C     
28   N        -9.6663   36.9849   -3.3394  N     
29   S       -10.3034   35.6775   -2.4849  S     
30   C        -9.8304   34.0114   -2.9782  C     
31   O        -9.9011   35.7976   -0.9519  O     
32   O       -11.8901   35.7517   -2.5269  O     
33   H        -3.1437   32.8123   -5.2380  H     
34   H        -6.7978   30.8882   -6.1022  H     
35   H        -2.4493   30.9386   -3.9264  H     
36   H        -2.4939   27.6675   -2.3582  H     
37   H        -2.0321   29.1840   -2.8882  H     
38   H        -6.6246   25.8537   -3.3288  H     
39   H        -7.7135   26.6772   -4.3146  H     
40   H        -7.0383   33.6531   -5.3691  H     
41   H        -6.4917   36.1599   -8.7281  H     
42   H        -4.7348   34.7590   -9.4813  H     
43   H        -2.3456   34.2289   -8.6873  H     
44   H        -2.0198   33.2829   -7.2210  H     
45   H        -1.4124   31.3147   -8.6399  H     
46   H        -0.4216   32.7328   -9.0459  H     
47   H        -1.7680   32.2634  -10.1031  H     
48   H        -8.7260   36.5029   -8.4194  H     
49   H       -10.4235   37.9930   -7.6397  H     
50   H       -10.8676   38.2310   -5.2729  H     
51   H        -7.6997   35.6091   -4.3999  H     
52   H        -9.9706   37.8622   -3.0397  H     
53   H       -10.0731   33.8410   -4.0231  H     
54   H       -10.3826   33.2898   -2.3670  H     
55   H        -8.7596   33.8651   -2.8326  H     
@<TRIPOS>BOND
     1    1    2 2
     2    1    4 1
     3    2    3 1
     4    2   13 1
     5    3    6 2
     6    4    5 2
     7    5    6 1
     8    5   10 1
     9    6    7 1
    10    7    8 2
    11    8    9 1
    12    8   12 1
    13    9   10 2
    14   10   11 1
    15   13   14 2
    16   13   18 1
    17   14   15 1
    18   15   16 2
    19   15   19 1
    20   16   17 1
    21   17   18 2
    22   18   20 1
    23   19   23 2
    24   19   27 1
    25   20   21 1
    26   21   22 1
    27   23   24 1
    28   24   25 2
    29   25   26 1
    30   26   27 2
    31   26   28 1
    32   28   29 1
    33   29   30 1
    34   29   31 2
    35   29   32 2
    36    1   33 1
    37    3   34 1
    38    4   35 1
    39   11   36 1
    40   11   37 1
    41   12   38 1
    42   12   39 1
    43   14   40 1
    44   16   41 1
    45   17   42 1
    46   21   43 1
    47   21   44 1
    48   22   45 1
    49   22   46 1
    50   22   47 1
    51   23   48 1
    52   24   49 1
    53   25   50 1
    54   27   51 1
    55   28   52 1
    56   30   53 1
    57   30   54 1
    58   30   55 1
@<TRIPOS>PROPERTY_DATA
  Total_Score	| 9.4167
  Crash		| -1.2245
  Polar		| 4.2564
  FragIndex	| 1
  FragRMSD	| 0.793

