@<TRIPOS>MOLECULE
BindingDB_50351178
 40 42 0 0 0
SMALL
NO_CHARGES


@<TRIPOS>ATOM
1    C        -3.6917   31.8835   -5.2312  C     
2    C        -4.8777   31.8004   -6.0254  C     
3    C        -5.7052   30.6553   -5.9168  C     
4    C        -3.3567   30.8054   -4.3832  C     
5    C        -4.1868   29.6665   -4.2737  C     
6    C        -5.3763   29.6089   -5.0395  C     
7    N        -6.2259   28.5560   -4.8738  N     
8    C        -5.9738   27.5475   -4.0051  C     
9    N        -4.8233   27.5701   -3.2807  N     
10   C        -3.9213   28.5721   -3.4087  C     
11   N        -2.7895   28.4944   -2.6798  N     
12   N        -6.8654   26.5624   -3.8358  N     
13   C        -5.3192   32.8834   -6.8253  C     
14   C        -6.4395   33.6294   -6.3904  C     
15   C        -6.8832   34.7458   -7.1184  C     
16   C        -6.2091   35.1205   -8.2919  C     
17   C        -5.0849   34.3895   -8.7231  C     
18   C        -4.6280   33.2561   -8.0145  C     
19   Cl       -8.1776   35.6581   -6.5338  Cl    
20   O        -3.5331   32.4938   -8.3876  O     
21   C        -2.2464   33.0256   -8.7712  C     
22   C        -1.1432   32.0686   -8.2984  C     
23   C        -2.8504   33.1111   -5.1959  C     
24   H        -6.5758   30.5943   -6.4583  H     
25   H        -2.5185   30.8715   -3.8019  H     
26   H        -2.6204   27.7240   -2.1179  H     
27   H        -2.1101   29.1740   -2.7677  H     
28   H        -6.6934   25.8547   -3.1941  H     
29   H        -7.7015   26.5666   -4.3354  H     
30   H        -6.9183   33.3664   -5.5231  H     
31   H        -6.5253   35.9304   -8.8342  H     
32   H        -4.6122   34.7176   -9.5652  H     
33   H        -2.2113   33.0876   -9.8563  H     
34   H        -2.0318   34.0260   -8.3968  H     
35   H        -1.2017   31.8928   -7.2215  H     
36   H        -0.1557   32.4816   -8.5268  H     
37   H        -1.2450   31.1130   -8.8175  H     
38   H        -2.4709   33.3574   -6.1887  H     
39   H        -1.9837   33.0151   -4.5334  H     
40   H        -3.4699   33.9405   -4.8444  H     
@<TRIPOS>BOND
     1    1    2 2
     2    1    4 1
     3    1   23 1
     4    2    3 1
     5    2   13 1
     6    3    6 2
     7    4    5 2
     8    5    6 1
     9    5   10 1
    10    6    7 1
    11    7    8 2
    12    8    9 1
    13    8   12 1
    14    9   10 2
    15   10   11 1
    16   13   14 2
    17   13   18 1
    18   14   15 1
    19   15   16 2
    20   15   19 1
    21   16   17 1
    22   17   18 2
    23   18   20 1
    24   20   21 1
    25   21   22 1
    26    3   24 1
    27    4   25 1
    28   11   26 1
    29   11   27 1
    30   12   28 1
    31   12   29 1
    32   14   30 1
    33   16   31 1
    34   17   32 1
    35   21   33 1
    36   21   34 1
    37   22   35 1
    38   22   36 1
    39   22   37 1
    40   23   38 1
    41   23   39 1
    42   23   40 1
@<TRIPOS>PROPERTY_DATA
  Total_Score	| 5.3397
  Crash		| -1.7798
  Polar		| 2.1498
  FragIndex	| 1
  FragRMSD	| 0.565

