@<TRIPOS>MOLECULE
BindingDB_50351179
 42 44 0 0 0
SMALL
NO_CHARGES


@<TRIPOS>ATOM
1    C        -8.5875   36.6042   -7.7222  C     
2    C        -7.4043   36.3374   -6.9760  C     
3    C        -7.4277   36.4850   -5.5708  C     
4    C        -9.7338   37.1013   -7.0495  C     
5    C        -9.7579   37.2435   -5.6445  C     
6    C        -8.5918   36.9138   -4.9077  C     
7    N        -8.5998   36.9992   -3.5468  N     
8    C        -9.6999   37.3901   -2.8625  C     
9    N       -10.8289   37.7141   -3.5402  N     
10   C       -10.8995   37.6566   -4.8931  C     
11   N       -12.0734   37.9819   -5.4580  N     
12   N        -9.6627   37.4550   -1.5232  N     
13   C        -6.1977   35.8734   -7.5715  C     
14   C        -5.8649   34.5067   -7.4645  C     
15   C        -4.6214   34.0051   -7.9363  C     
16   C        -3.7199   34.9153   -8.5357  C     
17   C        -4.0385   36.2762   -8.6394  C     
18   C        -5.2756   36.7708   -8.1701  C     
19   C        -4.2490   32.6784   -7.7751  C     
20   O        -4.6608   31.9851   -6.8514  O     
21   O        -5.4962   38.1330   -8.1732  O     
22   C        -5.7928   38.7588   -9.4494  C     
23   C        -4.9951   40.0767   -9.5715  C     
24   C        -8.6697   36.3090   -9.1861  C     
25   H        -6.5972   36.2566   -5.0213  H     
26   H       -10.5816   37.3080   -7.5933  H     
27   H       -12.8201   38.2467   -4.8987  H     
28   H       -12.1832   37.9412   -6.4196  H     
29   H       -10.4439   37.7409   -1.0272  H     
30   H        -8.8493   37.2159   -1.0511  H     
31   H        -6.5349   33.8665   -7.0217  H     
32   H        -2.8070   34.6047   -8.8745  H     
33   H        -3.3444   36.9209   -9.0261  H     
34   H        -3.5206   32.2910   -8.3381  H     
35   H        -5.5185   38.1271  -10.3062  H     
36   H        -6.8654   38.9806   -9.4961  H     
37   H        -5.3137   40.7875   -8.7956  H     
38   H        -5.1671   40.5146  -10.5651  H     
39   H        -3.9205   39.8663   -9.4585  H     
40   H        -7.9106   36.8835   -9.7290  H     
41   H        -9.6545   36.5578   -9.6021  H     
42   H        -8.4905   35.2367   -9.3450  H     
@<TRIPOS>BOND
     1    1    2 2
     2    1    4 1
     3    1   24 1
     4    2    3 1
     5    2   13 1
     6    3    6 2
     7    4    5 2
     8    5    6 1
     9    5   10 1
    10    6    7 1
    11    7    8 2
    12    8    9 1
    13    8   12 1
    14    9   10 2
    15   10   11 1
    16   13   14 2
    17   13   18 1
    18   14   15 1
    19   15   16 2
    20   15   19 1
    21   16   17 1
    22   17   18 2
    23   18   21 1
    24   19   20 2
    25   21   22 1
    26   22   23 1
    27    3   25 1
    28    4   26 1
    29   11   27 1
    30   11   28 1
    31   12   29 1
    32   12   30 1
    33   14   31 1
    34   16   32 1
    35   17   33 1
    36   19   34 1
    37   22   35 1
    38   22   36 1
    39   23   37 1
    40   23   38 1
    41   23   39 1
    42   24   40 1
    43   24   41 1
    44   24   42 1
@<TRIPOS>PROPERTY_DATA
  Total_Score	| 1.4087
  Crash		| -0.8720
  Polar		| 0.0000
  FragIndex	| 1
  FragRMSD	| 1.387

