@<TRIPOS>MOLECULE
BindingDB_50351177
 44 47 0 0 0
SMALL
NO_CHARGES


@<TRIPOS>ATOM
1    C        -3.6584   31.8051   -5.1734  C     
2    C        -4.8748   31.8053   -5.9132  C     
3    C        -5.7459   30.6955   -5.7786  C     
4    C        -3.3396   30.7139   -4.3299  C     
5    C        -4.2196   29.6175   -4.1896  C     
6    C        -5.4364   29.6160   -4.9236  C     
7    N        -6.2959   28.5663   -4.7660  N     
8    C        -6.0532   27.5367   -3.9166  C     
9    N        -4.9015   27.5277   -3.1886  N     
10   C        -3.9846   28.5267   -3.2956  C     
11   N        -2.8598   28.4484   -2.5556  N     
12   N        -6.9479   26.5506   -3.7887  N     
13   C        -5.3582   32.9597   -6.5945  C     
14   C        -6.6035   35.1653   -7.9489  C     
15   C        -5.5825   34.4312   -8.5650  C     
16   C        -4.9067   33.3879   -7.8828  C     
17   O        -3.8298   32.7642   -8.4931  O     
18   C        -2.7088   33.6240   -8.8309  C     
19   C        -1.5219   32.7257   -9.3002  C     
20   C        -2.7275   32.9570   -5.2384  C     
21   C        -6.9444   34.8288   -6.6411  C     
22   C        -6.3529   33.7587   -5.9757  C     
23   C        -6.9201   33.7392   -4.7245  C     
24   C        -7.7802   34.7527   -4.6581  C     
25   N        -7.8192   35.3923   -5.8021  N     
26   H        -6.6495   30.6817   -6.2600  H     
27   H        -2.4879   30.7454   -3.7543  H     
28   H        -2.7262   27.7036   -1.9421  H     
29   H        -2.1611   29.1325   -2.6347  H     
30   H        -6.7949   25.8319   -3.1583  H     
31   H        -7.7922   26.5732   -4.2896  H     
32   H        -7.1168   35.9249   -8.4429  H     
33   H        -5.3303   34.6664   -9.5270  H     
34   H        -2.9709   34.3085   -9.6644  H     
35   H        -2.4582   34.2646   -7.9917  H     
36   H        -1.2358   32.0118   -8.5174  H     
37   H        -0.6412   33.3183   -9.5610  H     
38   H        -1.8435   32.1720  -10.1867  H     
39   H        -2.3510   33.0419   -6.2220  H     
40   H        -1.8624   32.8182   -4.5610  H     
41   H        -3.3045   33.8509   -4.9174  H     
42   H        -6.6906   33.0967   -4.0145  H     
43   H        -8.2957   34.9906   -3.8311  H     
44   H        -8.3705   36.1912   -5.9877  H     
@<TRIPOS>BOND
     1    1    2 2
     2    1    4 1
     3    1   20 1
     4    2    3 1
     5    2   13 1
     6    3    6 2
     7    4    5 2
     8    5    6 1
     9    5   10 1
    10    6    7 1
    11    7    8 2
    12    8    9 1
    13    8   12 1
    14    9   10 2
    15   10   11 1
    16   13   16 1
    17   13   22 2
    18   14   15 1
    19   14   21 2
    20   15   16 2
    21   16   17 1
    22   17   18 1
    23   18   19 1
    24   21   22 1
    25   21   25 1
    26   22   23 1
    27   23   24 2
    28   24   25 1
    29    3   26 1
    30    4   27 1
    31   11   28 1
    32   11   29 1
    33   12   30 1
    34   12   31 1
    35   14   32 1
    36   15   33 1
    37   18   34 1
    38   18   35 1
    39   19   36 1
    40   19   37 1
    41   19   38 1
    42   20   39 1
    43   20   40 1
    44   20   41 1
    45   23   42 1
    46   24   43 1
    47   25   44 1
@<TRIPOS>PROPERTY_DATA
  Total_Score	| 5.4833
  Crash		| -1.9830
  Polar		| 2.1278
  FragIndex	| 1
  FragRMSD	| 0.729

