@<TRIPOS>MOLECULE
BindingDB_50351176
 46 49 0 0 0
SMALL
NO_CHARGES


@<TRIPOS>ATOM
1    C        -3.7143   32.0465   -5.1733  C     
2    C        -4.9568   32.0374   -5.8460  C     
3    C        -5.8256   30.9362   -5.6834  C     
4    C        -3.3394   30.9566   -4.3608  C     
5    C        -4.2027   29.8463   -4.2124  C     
6    C        -5.4545   29.8480   -4.8784  C     
7    N        -6.3046   28.7929   -4.7463  N     
8    C        -5.9956   27.7123   -3.9953  C     
9    N        -4.8027   27.6727   -3.3444  N     
10   C        -3.9097   28.6951   -3.4231  C     
11   N        -2.7573   28.5782   -2.7515  N     
12   N        -6.8657   26.6972   -3.8968  N     
13   C        -5.3480   33.1358   -6.6489  C     
14   C        -6.4486   33.9330   -6.2456  C     
15   C        -6.8963   35.0346   -7.0113  C     
16   C        -6.2266   35.2814   -8.2370  C     
17   C        -5.1598   34.4706   -8.6751  C     
18   C        -4.6874   33.4198   -7.8668  C     
19   C        -7.9781   35.8784   -6.5575  C     
20   O        -3.6581   32.6314   -8.3202  O     
21   C        -2.3320   33.1895   -8.2298  C     
22   C        -1.6785   33.1442   -9.6255  C     
23   C        -8.8162   36.5649   -7.4749  C     
24   C        -9.8624   37.4032   -7.0370  C     
25   C       -10.0991   37.5337   -5.6580  C     
26   N        -9.2956   36.8750   -4.7852  N     
27   C        -8.2691   36.0780   -5.1832  C     
28   H        -3.0812   32.8468   -5.2420  H     
29   H        -6.7333   30.9297   -6.1535  H     
30   H        -2.4368   30.9910   -3.8726  H     
31   H        -2.5733   27.7831   -2.2304  H     
32   H        -2.0906   29.2783   -2.8120  H     
33   H        -6.6566   25.9257   -3.3437  H     
34   H        -7.7172   26.7347   -4.3699  H     
35   H        -6.9281   33.7047   -5.3708  H     
36   H        -6.4857   36.0767   -8.8238  H     
37   H        -4.7084   34.6547   -9.5733  H     
38   H        -2.3042   34.2153   -7.8411  H     
39   H        -1.7521   32.5582   -7.5531  H     
40   H        -1.6607   32.1136   -9.9879  H     
41   H        -0.6537   33.5186   -9.5782  H     
42   H        -2.2396   33.7523  -10.3382  H     
43   H        -8.6925   36.4450   -8.4806  H     
44   H       -10.4549   37.9022   -7.7074  H     
45   H       -10.8663   38.1210   -5.3127  H     
46   H        -7.7010   35.6391   -4.4562  H     
@<TRIPOS>BOND
     1    1    2 2
     2    1    4 1
     3    2    3 1
     4    2   13 1
     5    3    6 2
     6    4    5 2
     7    5    6 1
     8    5   10 1
     9    6    7 1
    10    7    8 2
    11    8    9 1
    12    8   12 1
    13    9   10 2
    14   10   11 1
    15   13   14 2
    16   13   18 1
    17   14   15 1
    18   15   16 2
    19   15   19 1
    20   16   17 1
    21   17   18 2
    22   18   20 1
    23   19   23 2
    24   19   27 1
    25   20   21 1
    26   21   22 1
    27   23   24 1
    28   24   25 2
    29   25   26 1
    30   26   27 2
    31    1   28 1
    32    3   29 1
    33    4   30 1
    34   11   31 1
    35   11   32 1
    36   12   33 1
    37   12   34 1
    38   14   35 1
    39   16   36 1
    40   17   37 1
    41   21   38 1
    42   21   39 1
    43   22   40 1
    44   22   41 1
    45   22   42 1
    46   23   43 1
    47   24   44 1
    48   25   45 1
    49   27   46 1
@<TRIPOS>PROPERTY_DATA
  Total_Score	| 6.4607
  Crash		| -0.6765
  Polar		| 2.3030
  FragIndex	| 1
  FragRMSD	| 0.660

