@<TRIPOS>MOLECULE
BindingDB_50351173
 56 58 0 0 0
SMALL
NO_CHARGES


@<TRIPOS>ATOM
1    C        -3.7725   31.8796   -5.2869  C     
2    C        -4.9495   31.7802   -6.0854  C     
3    C        -5.7657   30.6295   -5.9760  C     
4    C        -3.4218   30.8039   -4.4378  C     
5    C        -4.2415   29.6649   -4.3165  C     
6    C        -5.4304   29.5949   -5.0834  C     
7    N        -6.2826   28.5377   -4.9045  N     
8    C        -6.0283   27.5499   -4.0103  C     
9    N        -4.8848   27.5859   -3.2813  N     
10   C        -3.9845   28.5899   -3.4149  C     
11   N        -2.8662   28.5307   -2.6678  N     
12   N        -6.9161   26.5578   -3.8547  N     
13   C        -5.4022   32.8873   -6.8505  C     
14   C        -6.5295   33.6120   -6.4002  C     
15   C        -6.9529   34.8269   -6.9800  C     
16   C        -6.2112   35.2644   -8.1188  C     
17   C        -5.1146   34.5354   -8.6197  C     
18   C        -4.6712   33.3509   -7.9774  C     
19   C        -8.0791   35.5328   -6.5113  C     
20   O        -3.6237   32.5873   -8.4528  O     
21   C        -2.3758   33.1932   -8.8398  C     
22   C        -1.2224   32.2312   -8.4802  C     
23   C        -2.9573   33.1228   -5.2323  C     
24   O        -8.7677   35.9667   -7.4369  O     
25   N        -8.5026   35.7937   -5.2394  N     
26   C        -9.7172   36.5849   -4.9952  C     
27   C        -7.7631   35.4018   -4.0415  C     
28   C        -9.5640   37.7026   -3.9246  C     
29   C        -8.4601   34.3846   -3.1080  C     
30   H        -6.6325   30.5631   -6.5169  H     
31   H        -2.5842   30.8811   -3.8500  H     
32   H        -2.7296   27.7909   -2.0607  H     
33   H        -2.1791   29.2054   -2.7613  H     
34   H        -6.7448   25.8463   -3.2129  H     
35   H        -7.7388   26.5548   -4.3765  H     
36   H        -7.0953   33.2052   -5.6511  H     
37   H        -6.4756   36.1240   -8.5996  H     
38   H        -4.6354   34.8758   -9.4636  H     
39   H        -2.3683   33.3668   -9.9187  H     
40   H        -2.2076   34.1339   -8.3125  H     
41   H        -1.2246   32.0276   -7.4045  H     
42   H        -0.2623   32.6763   -8.7468  H     
43   H        -1.3260   31.2839   -9.0186  H     
44   H        -2.5609   33.3741   -6.2174  H     
45   H        -2.1021   33.0322   -4.5510  H     
46   H        -3.5959   33.9410   -4.8808  H     
47   H       -10.1005   37.0777   -5.8872  H     
48   H       -10.5394   35.9341   -4.6926  H     
49   H        -6.7967   34.9684   -4.2308  H     
50   H        -7.5577   36.2900   -3.4574  H     
51   H        -9.4819   37.2632   -2.9261  H     
52   H       -10.4394   38.3577   -3.9396  H     
53   H        -8.6739   38.3027   -4.1269  H     
54   H        -9.3504   34.8085   -2.6323  H     
55   H        -7.7733   34.1027   -2.3063  H     
56   H        -8.7429   33.4836   -3.6628  H     
@<TRIPOS>BOND
     1    1    2 2
     2    1    4 1
     3    1   23 1
     4    2    3 1
     5    2   13 1
     6    3    6 2
     7    4    5 2
     8    5    6 1
     9    5   10 1
    10    6    7 1
    11    7    8 2
    12    8    9 1
    13    8   12 1
    14    9   10 2
    15   10   11 1
    16   13   14 2
    17   13   18 1
    18   14   15 1
    19   15   16 2
    20   15   19 1
    21   16   17 1
    22   17   18 2
    23   18   20 1
    24   19   24 2
    25   19   25 am
    26   20   21 1
    27   21   22 1
    28   25   26 1
    29   25   27 1
    30   26   28 1
    31   27   29 1
    32    3   30 1
    33    4   31 1
    34   11   32 1
    35   11   33 1
    36   12   34 1
    37   12   35 1
    38   14   36 1
    39   16   37 1
    40   17   38 1
    41   21   39 1
    42   21   40 1
    43   22   41 1
    44   22   42 1
    45   22   43 1
    46   23   44 1
    47   23   45 1
    48   23   46 1
    49   26   47 1
    50   26   48 1
    51   27   49 1
    52   27   50 1
    53   28   51 1
    54   28   52 1
    55   28   53 1
    56   29   54 1
    57   29   55 1
    58   29   56 1
@<TRIPOS>PROPERTY_DATA
  Total_Score	| 7.3844
  Crash		| -2.2883
  Polar		| 2.2387
  FragIndex	| 1
  FragRMSD	| 0.577

