@<TRIPOS>MOLECULE
BindingDB_50351196
 40 42 0 0 0
SMALL
NO_CHARGES


@<TRIPOS>ATOM
1    C        -3.5471   31.6913   -5.3881  C     
2    C        -4.7537   31.6555   -6.1513  C     
3    C        -5.6671   30.5930   -5.9676  C     
4    C        -3.2931   30.6533   -4.4650  C     
5    C        -4.2091   29.6038   -4.2674  C     
6    C        -5.3994   29.5738   -5.0280  C     
7    N        -6.3130   28.5853   -4.8088  N     
8    C        -6.1349   27.6367   -3.8551  C     
9    N        -5.0061   27.6528   -3.1089  N     
10   C        -4.0394   28.5867   -3.2824  C     
11   N        -2.9665   28.5333   -2.4802  N     
12   N        -7.0772   26.7085   -3.6283  N     
13   C        -5.1350   32.7717   -6.9433  C     
14   C        -6.2804   33.5037   -6.5531  C     
15   C        -6.5572   34.7681   -7.1092  C     
16   C        -5.6509   35.3438   -8.0028  C     
17   C        -4.5159   34.6106   -8.3979  C     
18   C        -4.2938   33.2837   -7.9566  C     
19   Br       -8.0498   35.7156   -6.5441  Br    
20   O        -3.2780   32.4827   -8.4709  O     
21   C        -2.2938   33.0215   -9.3981  C     
22   C        -1.0147   33.4201   -8.6371  C     
23   C        -2.5943   32.8301   -5.4325  C     
24   H        -6.5585   30.5876   -6.4747  H     
25   H        -2.4538   30.6898   -3.8894  H     
26   H        -2.9022   27.8509   -1.7978  H     
27   H        -2.2434   29.1684   -2.5867  H     
28   H        -6.9554   26.0520   -2.9216  H     
29   H        -7.8967   26.7127   -4.1485  H     
30   H        -6.8951   33.1588   -5.8130  H     
31   H        -5.7813   36.2897   -8.3397  H     
32   H        -3.8012   35.0545   -8.9977  H     
33   H        -2.0255   32.2567  -10.1175  H     
34   H        -2.7186   33.8661   -9.9977  H     
35   H        -1.2072   34.2711   -7.9829  H     
36   H        -0.2193   33.6898   -9.3401  H     
37   H        -0.6957   32.5740   -8.0409  H     
38   H        -2.1459   32.9153   -6.4180  H     
39   H        -1.7906   32.7475   -4.7009  H     
40   H        -3.1393   33.7455   -5.2088  H     
@<TRIPOS>BOND
     1    1    2 2
     2    1    4 1
     3    1   23 1
     4    2    3 1
     5    2   13 1
     6    3    6 2
     7    4    5 2
     8    5    6 1
     9    5   10 1
    10    6    7 1
    11    7    8 2
    12    8    9 1
    13    8   12 1
    14    9   10 2
    15   10   11 1
    16   13   14 2
    17   13   18 1
    18   14   15 1
    19   15   16 2
    20   15   19 1
    21   16   17 1
    22   17   18 2
    23   18   20 1
    24   20   21 1
    25   21   22 1
    26    3   24 1
    27    4   25 1
    28   11   26 1
    29   11   27 1
    30   12   28 1
    31   12   29 1
    32   14   30 1
    33   16   31 1
    34   17   32 1
    35   21   33 1
    36   21   34 1
    37   22   35 1
    38   22   36 1
    39   22   37 1
    40   23   38 1
    41   23   39 1
    42   23   40 1
@<TRIPOS>PROPERTY_DATA
  Total_Score	| 5.6628
  Crash		| -2.0709
  Polar		| 2.1558
  FragIndex	| 1
  FragRMSD	| 0.776

