@<TRIPOS>MOLECULE
BindingDB_8068
 42 44 0 0 0
SMALL
NO_CHARGES


@<TRIPOS>ATOM
1    C         4.9807   45.6808    0.4452  C     
2    C         6.2234   47.6101    0.6217  C     
3    C         5.0708   48.1052    1.2860  C     
4    N         6.1377   46.3204    0.1928  N     
5    C         7.4826   48.3334    0.3647  C     
6    S         3.9614   46.7826    1.2761  S     
7    C         4.7162   49.3692    1.8540  C     
8    C         5.5337   50.5260    1.8455  C     
9    C         5.0144   51.7209    2.3848  C     
10   C         3.0075   50.6225    2.9989  C     
11   N         3.4902   49.4808    2.4463  N     
12   N         3.7834   51.7344    2.9560  N     
13   N         1.7852   50.7599    3.5543  N     
14   C         0.7580   49.8720    3.7170  C     
15   C        -0.3314   47.6766    3.6318  C     
16   C         0.8179   48.4781    3.4990  C     
17   C        -0.4893   50.4236    4.0834  C     
18   C        -1.6392   49.6215    4.2540  C     
19   C        -1.5894   48.2184    4.0097  C     
20   C         4.6753   44.2981    0.0606  C     
21   N        -2.6664   47.3725    4.1533  N     
22   C        -3.0160   46.4434    3.0973  C     
23   C        -3.5614   47.4479    5.2850  C     
24   Cl       -3.0907   50.4460    4.5634  Cl    
25   H         7.2937   49.1980   -0.2728  H     
26   H         8.2090   47.6926   -0.1466  H     
27   H         7.9238   48.6523    1.3099  H     
28   H         6.4728   50.5400    1.4385  H     
29   H         5.5739   52.5800    2.3470  H     
30   H         1.5806   51.6619    3.8554  H     
31   H        -0.2135   46.6643    3.4981  H     
32   H         1.7035   48.0127    3.3015  H     
33   H        -0.5640   51.4384    4.2083  H     
34   H         4.7323   44.2037   -1.0232  H     
35   H         3.6744   44.0193    0.3907  H     
36   H         5.4028   43.6277    0.5168  H     
37   H        -3.4331   47.0148    2.2531  H     
38   H        -3.7774   45.7126    3.4110  H     
39   H        -2.1572   45.8632    2.7199  H     
40   H        -3.6613   46.4528    5.7384  H     
41   H        -4.5567   47.7817    4.9475  H     
42   H        -3.2023   48.1364    6.0652  H     
@<TRIPOS>BOND
     1    1    4 2
     2    1    6 1
     3    1   20 1
     4    2    3 2
     5    2    4 1
     6    2    5 1
     7    3    6 1
     8    3    7 1
     9    7    8 1
    10    7   11 2
    11    8    9 2
    12    9   12 1
    13   10   11 1
    14   10   12 2
    15   10   13 1
    16   13   14 1
    17   14   16 1
    18   14   17 2
    19   15   16 2
    20   15   19 1
    21   17   18 1
    22   18   19 2
    23   18   24 1
    24   19   21 1
    25   21   22 1
    26   21   23 1
    27    5   25 1
    28    5   26 1
    29    5   27 1
    30    8   28 1
    31    9   29 1
    32   13   30 1
    33   15   31 1
    34   16   32 1
    35   17   33 1
    36   20   34 1
    37   20   35 1
    38   20   36 1
    39   22   37 1
    40   22   38 1
    41   22   39 1
    42   23   40 1
    43   23   41 1
    44   23   42 1
@<TRIPOS>PROPERTY_DATA
  Total_Score	| 6.9398
  Crash		| -1.2315
  Polar		| 2.4810
  FragIndex	| 1
  FragRMSD	| 0.306

