@<TRIPOS>MOLECULE
BindingDB_8066
 42 44 0 0 0
SMALL
NO_CHARGES


@<TRIPOS>ATOM
1    C         4.9594   45.7091    0.4899  C     
2    C         6.1707   47.6726    0.6182  C     
3    C         5.0340   48.1475    1.3181  C     
4    N         6.0962   46.3786    0.1970  N     
5    C         7.3959   48.4243    0.2867  C     
6    S         3.9503   46.7986    1.3496  S     
7    C         4.6886   49.4034    1.9011  C     
8    C         5.5074   50.5574    1.9037  C     
9    C         5.0142   51.7417    2.4797  C     
10   C         2.9895   50.6621    3.0650  C     
11   N         3.4619   49.5275    2.4816  N     
12   N         3.7845   51.7623    3.0461  N     
13   N         1.7664   50.7952    3.6351  N     
14   C         0.7405   49.9018    3.7706  C     
15   C        -0.3558   47.7132    3.6112  C     
16   C         0.7872   48.5160    3.4921  C     
17   C        -0.4821   50.4257    4.2390  C     
18   C        -1.6207   49.6104    4.3837  C     
19   C        -1.6123   48.2257    4.0489  C     
20   C         4.6703   44.3199    0.1215  C     
21   N        -2.7417   47.4273    4.1417  N     
22   C        -3.0424   46.4123    3.1460  C     
23   C        -3.7105   47.5981    5.2065  C     
24   H         7.1463   49.2922   -0.3276  H     
25   H         8.0997   47.8035   -0.2775  H     
26   H         7.8922   48.7484    1.2054  H     
27   H         6.4440   50.5720    1.5095  H     
28   H         5.5827   52.5903    2.4719  H     
29   H         1.5560   51.6927    3.9352  H     
30   H        -0.2378   46.7250    3.3814  H     
31   H         1.6496   48.0592    3.2073  H     
32   H        -0.5621   51.4187    4.4777  H     
33   H        -2.4768   50.0707    4.7051  H     
34   H         4.6942   44.2153   -0.9647  H     
35   H         3.6887   44.0226    0.4858  H     
36   H         5.4235   43.6576    0.5535  H     
37   H        -3.0928   46.8756    2.1580  H     
38   H        -3.9931   45.8969    3.2921  H     
39   H        -2.2721   45.6468    3.1428  H     
40   H        -3.2071   47.5245    6.1715  H     
41   H        -4.5124   46.8543    5.2160  H     
42   H        -4.1862   48.5792    5.1187  H     
@<TRIPOS>BOND
     1    1    4 2
     2    1    6 1
     3    1   20 1
     4    2    3 2
     5    2    4 1
     6    2    5 1
     7    3    6 1
     8    3    7 1
     9    7    8 1
    10    7   11 2
    11    8    9 2
    12    9   12 1
    13   10   11 1
    14   10   12 2
    15   10   13 1
    16   13   14 1
    17   14   16 1
    18   14   17 2
    19   15   16 2
    20   15   19 1
    21   17   18 1
    22   18   19 2
    23   19   21 1
    24   21   22 1
    25   21   23 1
    26    5   24 1
    27    5   25 1
    28    5   26 1
    29    8   27 1
    30    9   28 1
    31   13   29 1
    32   15   30 1
    33   16   31 1
    34   17   32 1
    35   18   33 1
    36   20   34 1
    37   20   35 1
    38   20   36 1
    39   22   37 1
    40   22   38 1
    41   22   39 1
    42   23   40 1
    43   23   41 1
    44   23   42 1
@<TRIPOS>PROPERTY_DATA
  Total_Score	| 6.5742
  Crash		| -1.0262
  Polar		| 2.1339
  FragIndex	| 1
  FragRMSD	| 0.282

