@<TRIPOS>MOLECULE
BindingDB_50142331
 59 63 0 0 0
SMALL
NO_CHARGES


@<TRIPOS>ATOM
1    N         5.9377   41.3817   16.7521  N     
2    N         4.7053   41.3093   17.1249  N     
3    C         7.0070   41.8092   17.6780  C     
4    P         9.9109   46.1438   23.4650  P     
5    C        10.4581   45.6204   21.9832  C     
6    N         3.9206   40.7793   16.2931  N     
7    C         5.9610   40.8864   15.4864  C     
8    C         4.6558   40.4720   15.2261  C     
9    C         9.3746   44.9774   21.1669  C     
10   C         8.2452   42.3976   16.8698  C     
11   C         6.4465   42.9573   18.6310  C     
12   O         8.8792   47.1428   23.3660  O     
13   C         7.3805   40.6012   18.5546  C     
14   F        11.4929   44.7332   22.1811  F     
15   F        11.0353   46.7017   21.3535  F     
16   O         9.3154   45.0113   24.3142  O     
17   O        11.0409   46.7570   24.3073  O     
18   C         8.9329   43.6621   21.4536  C     
19   C         8.7695   45.6409   20.0722  C     
20   C         7.3976   43.6694   19.5387  C     
21   C         8.1301   43.6645   16.0538  C     
22   C         8.0489   46.1722   14.6988  C     
23   C         7.9569   43.0253   20.6628  C     
24   C         7.8067   44.9968   19.2716  C     
25   Br        7.9875   47.8229   13.8408  Br    
26   C         6.9305   40.7514   14.4659  C     
27   C         9.3150   44.4019   15.7848  C     
28   C         6.9065   44.2244   15.6005  C     
29   C         6.8602   45.4599   14.9287  C     
30   C         9.2813   45.6429   15.1206  C     
31   C         4.2790   39.8469   14.0225  C     
32   C         8.6116   40.4791   19.2712  C     
33   C         6.4435   39.5481   18.7788  C     
34   C         6.5875   40.0976   13.2543  C     
35   C         5.2654   39.6337   13.0457  C     
36   C         6.7068   38.4605   19.6317  C     
37   C         8.8815   39.3988   20.1300  C     
38   C         7.9275   38.3886   20.3195  C     
39   H         9.0243   42.6268   17.6111  H     
40   H         8.6512   41.5806   16.2351  H     
41   H         5.9649   43.7109   18.0064  H     
42   H         5.6342   42.5660   19.2453  H     
43   H         9.3357   43.1454   22.2396  H     
44   H         9.0385   46.5982   19.8325  H     
45   H         7.6610   42.0799   20.9116  H     
46   H         7.4226   45.5062   18.4710  H     
47   H         7.8598   41.1733   14.5692  H     
48   H        10.2213   44.0508   16.0997  H     
49   H         6.0162   43.7642   15.7540  H     
50   H         5.9606   45.8435   14.6170  H     
51   H        10.1490   46.1624   14.9492  H     
52   H         3.3119   39.5392   13.8815  H     
53   H         9.3358   41.1949   19.2178  H     
54   H         5.5266   39.5540   18.3332  H     
55   H         7.2962   39.9618   12.5275  H     
56   H         5.0239   39.1540   12.1776  H     
57   H         6.0010   37.7290   19.7643  H     
58   H         9.7685   39.3599   20.6369  H     
59   H         8.1169   37.6101   20.9565  H     
@<TRIPOS>BOND
     1    1    2 1
     2    1    3 1
     3    1    7 1
     4    2    6 2
     5    3   10 1
     6    3   11 1
     7    3   13 1
     8    4    5 1
     9    4   12 2
    10    4   16 1
    11    4   17 1
    12    5    9 1
    13    5   14 1
    14    5   15 1
    15    6    8 1
    16    7    8 2
    17    7   26 1
    18    8   31 1
    19    9   18 1
    20    9   19 2
    21   10   21 1
    22   11   20 1
    23   13   32 1
    24   13   33 2
    25   18   23 2
    26   19   24 1
    27   20   23 1
    28   20   24 2
    29   21   27 1
    30   21   28 2
    31   22   25 1
    32   22   29 2
    33   22   30 1
    34   26   34 2
    35   27   30 2
    36   28   29 1
    37   31   35 2
    38   32   37 2
    39   33   36 1
    40   34   35 1
    41   36   38 2
    42   37   38 1
    43   10   39 1
    44   10   40 1
    45   11   41 1
    46   11   42 1
    47   18   43 1
    48   19   44 1
    49   23   45 1
    50   24   46 1
    51   26   47 1
    52   27   48 1
    53   28   49 1
    54   29   50 1
    55   30   51 1
    56   31   52 1
    57   32   53 1
    58   33   54 1
    59   34   55 1
    60   35   56 1
    61   36   57 1
    62   37   58 1
    63   38   59 1
@<TRIPOS>PROPERTY_DATA
  Total_Score	| 12.4770
  Crash		| -2.3897
  Polar		| 7.4249
  FragIndex	| 1
  FragRMSD	| 1.011

