@<TRIPOS>MOLECULE
BindingDB_50142330
 67 72 0 0 0
SMALL
NO_CHARGES


@<TRIPOS>ATOM
1    C         7.0551   42.3930   17.2489  C     
2    N         5.9387   41.6809   16.6099  N     
3    C         7.5188   43.4192   16.2724  C     
4    N         4.8155   41.4214   17.1824  N     
5    N         6.6755   44.3059   15.7836  N     
6    P         9.9879   46.1354   23.4685  P     
7    P         8.7785   36.2370   21.9851  P     
8    C         7.4353   37.1968   21.7372  C     
9    C        10.6044   45.6426   21.9982  C     
10   N         4.0232   40.7339   16.4810  N     
11   S         9.1293   43.5876   15.6693  S     
12   C         5.8653   41.1301   15.3717  C     
13   C         4.6244   40.5095   15.3124  C     
14   C         7.2191   45.1468   14.8931  C     
15   C         8.5734   44.8947   14.6984  C     
16   C         6.5717   43.1462   18.5559  C     
17   C         8.1629   41.3197   17.6174  C     
18   C         7.6040   38.2372   20.6682  C     
19   C         9.5685   45.0238   21.1069  C     
20   O         8.9447   35.2883   20.9054  O     
21   O        11.0054   46.6932   24.3196  O     
22   F        11.6143   44.7321   22.2169  F     
23   F         7.1110   37.8270   22.9163  F     
24   F        11.2172   46.7399   21.4358  F     
25   F         6.3903   36.3308   21.4957  F     
26   O        10.0993   37.0192   22.1230  O     
27   O         8.6364   35.4131   23.2803  O     
28   O         8.8958   47.2094   23.3401  O     
29   O         9.3450   45.0047   24.2878  O     
30   C         9.0004   45.7211   20.0093  C     
31   C         6.6621   38.4045   19.6210  C     
32   C         9.1181   43.7087   21.3500  C     
33   C         8.7185   39.1068   20.6809  C     
34   C         7.9304   40.2868   18.6756  C     
35   C         7.6104   43.7892   19.4150  C     
36   C         8.0374   45.1119   19.1796  C     
37   C         6.8338   39.4011   18.6418  C     
38   C         8.8991   40.0833   19.6853  C     
39   C         8.1262   43.1169   20.5442  C     
40   C         6.7241   41.0810   14.2520  C     
41   C         4.1879   39.8091   14.1788  C     
42   C         6.5780   46.1673   14.1650  C     
43   C         9.3359   45.6391   13.7844  C     
44   C         6.3089   40.3812   13.0989  C     
45   C         5.0465   39.7506   13.0609  C     
46   C         8.7035   46.6564   13.0422  C     
47   C         7.3269   46.9130   13.2283  C     
48   H         5.8366   43.9156   18.2937  H     
49   H         6.0236   42.4295   19.1681  H     
50   H         8.4359   40.7619   16.7190  H     
51   H         9.0557   41.8756   17.8989  H     
52   H         9.2762   46.6824   19.8000  H     
53   H         5.8536   37.7855   19.5322  H     
54   H         9.4923   43.1655   22.1339  H     
55   H         9.4277   39.0591   21.4179  H     
56   H         7.6374   45.6607   18.4160  H     
57   H         6.1585   39.4324   17.8814  H     
58   H         9.7345   40.6744   19.7384  H     
59   H         7.7863   42.1909   20.7999  H     
60   H         7.6308   41.5437   14.2610  H     
61   H         3.2706   39.3632   14.1614  H     
62   H         5.5786   46.3512   14.2963  H     
63   H        10.3303   45.4403   13.6510  H     
64   H         6.9268   40.3316   12.2852  H     
65   H         4.7521   39.2482   12.2211  H     
66   H         9.2370   47.1971   12.3633  H     
67   H         6.8661   47.6420   12.6723  H     
@<TRIPOS>BOND
     1    1    2 1
     2    1    3 1
     3    1   16 1
     4    1   17 1
     5    2    4 1
     6    2   12 1
     7    3    5 2
     8    3   11 1
     9    4   10 2
    10    5   14 1
    11    6    9 1
    12    6   21 2
    13    6   28 1
    14    6   29 1
    15    7    8 1
    16    7   20 2
    17    7   26 1
    18    7   27 1
    19    8   18 1
    20    8   23 1
    21    8   25 1
    22    9   19 1
    23    9   22 1
    24    9   24 1
    25   10   13 1
    26   11   15 1
    27   12   13 2
    28   12   40 1
    29   13   41 1
    30   14   15 1
    31   14   42 2
    32   15   43 2
    33   16   35 1
    34   17   34 1
    35   18   31 1
    36   18   33 2
    37   19   30 1
    38   19   32 2
    39   30   36 2
    40   31   37 2
    41   32   39 1
    42   33   38 1
    43   34   37 1
    44   34   38 2
    45   35   36 1
    46   35   39 2
    47   40   44 2
    48   41   45 2
    49   42   47 1
    50   43   46 1
    51   44   45 1
    52   46   47 2
    53   16   48 1
    54   16   49 1
    55   17   50 1
    56   17   51 1
    57   30   52 1
    58   31   53 1
    59   32   54 1
    60   33   55 1
    61   36   56 1
    62   37   57 1
    63   38   58 1
    64   39   59 1
    65   40   60 1
    66   41   61 1
    67   42   62 1
    68   43   63 1
    69   44   64 1
    70   45   65 1
    71   46   66 1
    72   47   67 1
@<TRIPOS>PROPERTY_DATA
  Total_Score	| 14.8183
  Crash		| -1.8424
  Polar		| 8.6753
  FragIndex	| 1
  FragRMSD	| 0.665

