@<TRIPOS>MOLECULE
BindingDB_13815
 63 67 0 0 0
SMALL
NO_CHARGES


@<TRIPOS>ATOM
1    C         9.4882   44.9498   21.0769  C     
2    C         8.9285   45.5950   19.9487  C     
3    C         7.9823   44.9533   19.1352  C     
4    C         8.1023   42.9824   20.5463  C     
5    C         9.0486   43.6303   21.3629  C     
6    C        10.5106   45.6296   21.9388  C     
7    F        11.5797   44.7912   22.1648  F     
8    F        11.0620   46.7419   21.3384  F     
9    P         9.8948   46.1154   23.4106  P     
10   O         9.3199   44.9450   24.2253  O     
11   O        10.9862   46.7430   24.2984  O     
12   O         8.8498   47.0985   23.3036  O     
13   C         7.5664   43.6306   19.4121  C     
14   C         6.5891   42.9504   18.5146  C     
15   C         7.5117   40.6005   18.4441  C     
16   C         8.8256   40.3967   18.9561  C     
17   C         9.1405   39.3367   19.8241  C     
18   C         8.1439   38.4275   20.2111  C     
19   C         6.8377   38.5869   19.7247  C     
20   C         6.5335   39.6530   18.8602  C     
21   N         5.9960   41.3669   16.6855  N     
22   N         4.7849   41.2814   17.1231  N     
23   N         3.9631   40.7647   16.3243  N     
24   C         5.9538   40.8964   15.4053  C     
25   C         4.6458   40.4778   15.2126  C     
26   C         6.8614   40.7675   14.3243  C     
27   C         6.4452   40.1647   13.1172  C     
28   C         5.1231   39.6997   12.9814  C     
29   C         4.2043   39.8721   14.0326  C     
30   C         7.1078   41.7828   17.5702  C     
31   C         8.3128   42.3505   16.7183  C     
32   C         8.0130   43.4422   15.8026  C     
33   C         8.9228   44.3813   15.4882  C     
34   C         8.6641   45.5953   14.8415  C     
35   C         7.5264   47.7762   14.6770  C     
36   C         7.6858   46.5224   15.2921  C     
37   C         9.4827   45.9844   13.7479  C     
38   C         9.3198   47.2355   13.1242  C     
39   C         8.3471   48.1366   13.5918  C     
40   H         9.2035   46.5472   19.7082  H     
41   H         7.6128   45.4507   18.3216  H     
42   H         7.7981   42.0345   20.7874  H     
43   H         9.4239   43.1325   22.1694  H     
44   H         5.7755   42.5802   19.1443  H     
45   H         6.1194   43.7042   17.8698  H     
46   H         9.5900   41.0346   18.7264  H     
47   H        10.0971   39.2250   20.1768  H     
48   H         8.3696   37.6524   20.8321  H     
49   H         6.1076   37.9223   19.9913  H     
50   H         5.5697   39.7306   18.5415  H     
51   H         7.8062   41.1236   14.3676  H     
52   H         7.1091   40.0686   12.3510  H     
53   H         4.8240   39.2650   12.1094  H     
54   H         3.2342   39.5650   13.9373  H     
55   H         9.0724   42.7231   17.3980  H     
56   H         8.7883   41.5210   16.1735  H     
57   H         7.0875   43.5245   15.4643  H     
58   H         9.8623   44.2199   15.7829  H     
59   H         6.8256   48.4318   15.0315  H     
60   H         7.0973   46.3174   16.1046  H     
61   H        10.2138   45.3594   13.3940  H     
62   H         9.9149   47.4977   12.3345  H     
63   H         8.2364   49.0512   13.1453  H     
@<TRIPOS>BOND
     1    1    2 1
     2    1    5 2
     3    1    6 1
     4    2    3 2
     5    3   13 1
     6    4    5 1
     7    4   13 2
     8    6    7 1
     9    6    8 1
    10    6    9 1
    11    9   10 1
    12    9   11 1
    13    9   12 2
    14   13   14 1
    15   14   30 1
    16   15   16 2
    17   15   20 1
    18   15   30 1
    19   16   17 1
    20   17   18 2
    21   18   19 1
    22   19   20 2
    23   21   22 1
    24   21   24 1
    25   21   30 1
    26   22   23 2
    27   23   25 1
    28   24   25 2
    29   24   26 1
    30   25   29 1
    31   26   27 2
    32   27   28 1
    33   28   29 2
    34   30   31 1
    35   31   32 1
    36   32   33 2
    37   33   34 1
    38   34   36 2
    39   34   37 1
    40   35   36 1
    41   35   39 2
    42   37   38 2
    43   38   39 1
    44    2   40 1
    45    3   41 1
    46    4   42 1
    47    5   43 1
    48   14   44 1
    49   14   45 1
    50   16   46 1
    51   17   47 1
    52   18   48 1
    53   19   49 1
    54   20   50 1
    55   26   51 1
    56   27   52 1
    57   28   53 1
    58   29   54 1
    59   31   55 1
    60   31   56 1
    61   32   57 1
    62   33   58 1
    63   35   59 1
    64   36   60 1
    65   37   61 1
    66   38   62 1
    67   39   63 1
@<TRIPOS>PROPERTY_DATA
  Total_Score	| 13.0427
  Crash		| -1.6833
  Polar		| 7.3525
  FragIndex	| 1
  FragRMSD	| 0.913

