@<TRIPOS>MOLECULE
BindingDB_50142323
 65 69 0 0 0
SMALL
NO_CHARGES


@<TRIPOS>ATOM
1    N         6.0622   41.3019   16.7761  N     
2    N         4.8386   41.2298   17.1724  N     
3    C         8.1972   47.4151   13.6000  C     
4    C         7.1277   41.8219   17.6386  C     
5    P         7.5459   47.1844   12.0752  P     
6    C         8.2628   46.1520   14.4126  C     
7    P         9.9066   46.1200   23.4493  P     
8    C        10.5400   45.5887   22.0050  C     
9    N         4.0344   40.7102   16.3486  N     
10   C         6.0809   40.7387   15.5386  C     
11   C         9.4689   45.5220   14.8374  C     
12   C         4.7567   40.3974   15.2714  C     
13   C         7.0329   45.5228   14.7717  C     
14   C         9.4895   44.9341   21.1560  C     
15   C         8.3024   42.4806   16.7935  C     
16   C         6.5642   42.9569   18.6109  C     
17   O         7.8075   45.8710   11.5383  O     
18   O         8.8751   47.1144   23.3119  O     
19   C         7.6110   40.6306   18.4766  C     
20   C         9.4220   44.3416   15.6057  C     
21   F         7.4574   48.3443   14.2882  F     
22   F         9.3955   48.0566   13.4308  F     
23   C         8.1953   43.7328   15.9755  C     
24   F        11.5875   44.7313   22.2640  F     
25   F        11.1210   46.6654   21.3736  F     
26   O         6.0186   47.3960   12.1163  O     
27   O         8.0827   48.2189   11.0605  O     
28   O         9.2705   44.9865   24.2726  O     
29   O        10.9874   46.7448   24.3462  O     
30   C         8.8635   45.6313   20.0899  C     
31   C         9.0775   43.6021   21.4062  C     
32   Br       11.2017   46.0808   14.4015  Br    
33   C         6.9998   44.3315   15.5209  C     
34   C         7.5362   43.6515   19.5009  C     
35   C         7.9014   45.0073   19.2791  C     
36   C         8.1171   42.9750   20.5963  C     
37   C         7.0589   40.4660   14.5470  C     
38   C         4.3476   39.8213   14.0556  C     
39   C         6.6642   39.7007   18.9939  C     
40   C         8.9774   40.3961   18.8269  C     
41   C         6.6665   39.9323   13.2979  C     
42   C         5.3168   39.6118   13.0503  C     
43   C         9.3576   39.3232   19.6667  C     
44   C         7.0347   38.6355   19.8368  C     
45   C         8.3843   38.4527   20.1877  C     
46   H         6.1366   45.9336   14.4949  H     
47   H         9.1234   42.6605   17.5121  H     
48   H         8.6755   41.7352   16.0851  H     
49   H         6.0536   43.7129   18.0047  H     
50   H         5.7693   42.5585   19.2383  H     
51   H        10.3071   43.9124   15.8987  H     
52   H         9.1033   46.6072   19.8925  H     
53   H         9.4816   43.0697   22.1821  H     
54   H         6.0889   43.9097   15.6987  H     
55   H         7.4812   45.5445   18.5179  H     
56   H         7.8426   42.0123   20.8071  H     
57   H         8.0483   40.6359   14.7035  H     
58   H         3.3703   39.5850   13.8883  H     
59   H         5.6706   39.7799   18.7469  H     
60   H         9.7255   41.0051   18.4784  H     
61   H         7.3773   39.7654   12.5796  H     
62   H         5.0335   39.2438   12.1387  H     
63   H        10.3451   39.1924   19.9006  H     
64   H         6.3301   37.9949   20.2049  H     
65   H         8.6616   37.6834   20.8006  H     
@<TRIPOS>BOND
     1    1    2 1
     2    1    4 1
     3    1   10 1
     4    2    9 2
     5    3    5 1
     6    3    6 1
     7    3   21 1
     8    3   22 1
     9    4   15 1
    10    4   16 1
    11    4   19 1
    12    5   17 2
    13    5   26 1
    14    5   27 1
    15    6   11 1
    16    6   13 2
    17    7    8 1
    18    7   18 2
    19    7   28 1
    20    7   29 1
    21    8   14 1
    22    8   24 1
    23    8   25 1
    24    9   12 1
    25   10   12 2
    26   10   37 1
    27   11   20 2
    28   11   32 1
    29   12   38 1
    30   13   33 1
    31   14   30 2
    32   14   31 1
    33   15   23 1
    34   16   34 1
    35   19   39 1
    36   19   40 2
    37   20   23 1
    38   23   33 2
    39   30   35 1
    40   31   36 2
    41   34   35 2
    42   34   36 1
    43   37   41 2
    44   38   42 2
    45   39   44 2
    46   40   43 1
    47   41   42 1
    48   43   45 2
    49   44   45 1
    50   13   46 1
    51   15   47 1
    52   15   48 1
    53   16   49 1
    54   16   50 1
    55   20   51 1
    56   30   52 1
    57   31   53 1
    58   33   54 1
    59   35   55 1
    60   36   56 1
    61   37   57 1
    62   38   58 1
    63   39   59 1
    64   40   60 1
    65   41   61 1
    66   42   62 1
    67   43   63 1
    68   44   64 1
    69   45   65 1
@<TRIPOS>PROPERTY_DATA
  Total_Score	| 13.0640
  Crash		| -2.1658
  Polar		| 8.3925
  FragIndex	| 1
  FragRMSD	| 1.205

