@<TRIPOS>MOLECULE
BindingDB_50142325
 70 75 0 0 0
SMALL
NO_CHARGES


@<TRIPOS>ATOM
1    N         5.8498   41.6488   16.6833  N     
2    C         6.9202   42.4623   17.2797  C     
3    N         4.7529   41.3463   17.2724  N     
4    P         8.8263   36.2462   21.7448  P     
5    P         9.9934   46.1228   23.4857  P     
6    C        10.5696   45.6054   22.0085  C     
7    C         7.4921   37.2314   21.5746  C     
8    N         3.9768   40.6400   16.5729  N     
9    C         5.7916   41.0921   15.4476  C     
10   C         7.2304   43.5663   16.3279  C     
11   N         8.5000   43.9314   16.1246  N     
12   C         4.5724   40.4291   15.3989  C     
13   C         9.4932   45.0154   21.1475  C     
14   C         7.6566   38.2849   20.5127  C     
15   C         6.4441   43.1454   18.6346  C     
16   C         8.1408   41.4824   17.5470  C     
17   C         8.8916   44.9240   15.2791  C     
18   O         8.9864   35.3855   20.6014  O     
19   O        11.0289   46.7005   24.3032  O     
20   C         6.2527   44.2699   15.6454  C     
21   F        11.5621   44.6749   22.2268  F     
22   F         7.2439   37.8217   22.7958  F     
23   F        11.2012   46.6777   21.4177  F     
24   F         6.4098   36.4067   21.3417  F     
25   O        10.1120   37.0757   21.9137  O     
26   O         8.9042   47.1980   23.3336  O     
27   O         9.3658   44.9866   24.3134  O     
28   O         8.6720   35.3348   22.9769  O     
29   C         7.8880   45.6095   14.5459  C     
30   C         6.5619   45.2315   14.7527  C     
31   C         9.0837   43.6743   21.3439  C     
32   C         8.7176   39.2220   20.5887  C     
33   C         8.8420   45.7532   20.1255  C     
34   C         6.7798   38.3946   19.3998  C     
35   C         7.9837   40.3680   18.5391  C     
36   C         7.4800   43.8081   19.4900  C     
37   C         6.9546   39.4003   18.4234  C     
38   C         8.8875   40.2264   19.6183  C     
39   C         7.8604   45.1588   19.3056  C     
40   C         8.0703   43.0982   20.5607  C     
41   C         6.6452   41.0646   14.3241  C     
42   C         4.1560   39.7027   14.2718  C     
43   C        10.2482   45.2677   15.1261  C     
44   C         8.2628   46.6396   13.6572  C     
45   C         6.2368   40.3680   13.1664  C     
46   C         5.0028   39.6810   13.1440  C     
47   C        10.6086   46.3045   14.2419  C     
48   C         9.6177   46.9869   13.5093  C     
49   H         5.6670   43.8847   18.4265  H     
50   H         5.9445   42.3792   19.2314  H     
51   H         8.4447   41.0226   16.6046  H     
52   H         8.9957   42.0910   17.8534  H     
53   H         5.2958   44.0503   15.7821  H     
54   H         5.8326   45.6776   14.2440  H     
55   H         9.5207   43.0993   22.0695  H     
56   H         9.3807   39.1841   21.3640  H     
57   H         9.0764   46.7356   19.9692  H     
58   H         6.0084   37.7316   19.2741  H     
59   H         6.3122   39.4227   17.6237  H     
60   H         9.6762   40.8654   19.7193  H     
61   H         7.4173   45.7257   18.5798  H     
62   H         7.7729   42.1438   20.7755  H     
63   H         7.5428   41.5480   14.3344  H     
64   H         3.2647   39.2024   14.2728  H     
65   H        10.9730   44.7760   15.6493  H     
66   H         7.5567   47.1446   13.1155  H     
67   H         6.8394   40.3528   12.3419  H     
68   H         4.7195   39.1686   12.3074  H     
69   H        11.5947   46.5627   14.1283  H     
70   H         9.8886   47.7396   12.8677  H     
@<TRIPOS>BOND
     1    1    2 1
     2    1    3 1
     3    1    9 1
     4    2   10 1
     5    2   15 1
     6    2   16 1
     7    3    8 2
     8    4    7 1
     9    4   18 2
    10    4   25 1
    11    4   28 1
    12    5    6 1
    13    5   19 2
    14    5   26 1
    15    5   27 1
    16    6   13 1
    17    6   21 1
    18    6   23 1
    19    7   14 1
    20    7   22 1
    21    7   24 1
    22    8   12 1
    23    9   12 2
    24    9   41 1
    25   10   11 2
    26   10   20 1
    27   11   17 1
    28   12   42 1
    29   13   31 2
    30   13   33 1
    31   14   32 1
    32   14   34 2
    33   15   36 1
    34   16   35 1
    35   17   29 1
    36   17   43 2
    37   20   30 2
    38   29   30 1
    39   29   44 2
    40   31   40 1
    41   32   38 2
    42   33   39 2
    43   34   37 1
    44   35   37 2
    45   35   38 1
    46   36   39 1
    47   36   40 2
    48   41   45 2
    49   42   46 2
    50   43   47 1
    51   44   48 1
    52   45   46 1
    53   47   48 2
    54   15   49 1
    55   15   50 1
    56   16   51 1
    57   16   52 1
    58   20   53 1
    59   30   54 1
    60   31   55 1
    61   32   56 1
    62   33   57 1
    63   34   58 1
    64   37   59 1
    65   38   60 1
    66   39   61 1
    67   40   62 1
    68   41   63 1
    69   42   64 1
    70   43   65 1
    71   44   66 1
    72   45   67 1
    73   46   68 1
    74   47   69 1
    75   48   70 1
@<TRIPOS>PROPERTY_DATA
  Total_Score	| 14.5870
  Crash		| -1.9260
  Polar		| 8.5954
  FragIndex	| 1
  FragRMSD	| 0.981

