@<TRIPOS>MOLECULE
BindingDB_50142334
 73 78 0 0 0
SMALL
NO_CHARGES


@<TRIPOS>ATOM
1    N         5.9724   41.3863   16.7265  N     
2    N         4.7741   41.3373   17.1950  N     
3    C         7.1317   41.7511   17.5630  C     
4    P         9.9213   46.1277   23.4483  P     
5    C        10.5429   45.6735   21.9691  C     
6    N         3.9210   40.8257   16.4235  N     
7    C         5.8790   40.8980   15.4639  C     
8    C         4.5548   40.5104   15.2986  C     
9    C         9.5389   44.9677   21.1066  C     
10   C         8.3451   42.3388   16.7108  C     
11   C         6.6638   42.8760   18.5780  C     
12   O        10.9491   46.6640   24.3044  O     
13   C         7.5317   40.5235   18.3995  C     
14   F        11.6397   44.8659   22.1805  F     
15   F        11.0537   46.8045   21.3721  F     
16   O         8.8277   47.2054   23.3557  O     
17   O         9.2897   44.9546   24.2165  O     
18   C         8.9864   45.5851   19.9545  C     
19   C         9.1244   43.6441   21.3999  C     
20   O         8.2048   47.5653   14.3033  O     
21   C         7.6683   43.5804   19.4284  C     
22   C         8.2734   43.6763   16.0069  C     
23   C         8.2311   46.3029   14.8388  C     
24   C         8.2066   42.9649   20.5794  C     
25   C         8.0608   44.9082   19.1467  C     
26   C         8.9930   47.7351   13.1048  C     
27   C         6.7791   40.7842   14.3807  C     
28   C         7.0729   44.2469   15.5126  C     
29   C         9.4468   44.4561   15.8680  C     
30   C         9.4369   45.7537   15.3100  C     
31   C         7.0571   45.5365   14.9258  C     
32   C         8.5841   48.9837   12.4083  C     
33   C         4.0898   39.9424   14.1027  C     
34   C         6.5525   39.5840   18.8410  C     
35   C         8.8619   40.2717   18.8832  C     
36   C         8.8829   50.2350   12.9958  C     
37   C         7.8595   48.9602   11.1944  C     
38   C         6.3431   40.1719   13.1830  C     
39   C         5.0024   39.7682   13.0374  C     
40   C         9.1647   39.1828   19.7206  C     
41   C         6.8415   38.4735   19.6448  C     
42   C         7.4435   50.1588   10.5767  C     
43   C         8.4594   51.4283   12.3853  C     
44   C         7.7384   51.3917   11.1828  C     
45   C         8.1542   38.2705   20.0968  C     
46   H         9.1565   42.4523   17.4231  H     
47   H         8.7249   41.5701   16.0088  H     
48   H         6.1293   43.6364   17.9899  H     
49   H         5.9079   42.4710   19.2627  H     
50   H         9.2344   46.5429   19.6993  H     
51   H         9.4859   43.1638   22.2285  H     
52   H         7.9110   42.0214   20.8409  H     
53   H         7.6643   45.4018   18.3397  H     
54   H        10.0561   47.7986   13.3534  H     
55   H         8.8611   46.8702   12.4568  H     
56   H         7.7086   41.1902   14.4161  H     
57   H         6.1866   43.7527   15.5757  H     
58   H        10.3538   44.0956   16.1708  H     
59   H        10.3036   46.3024   15.2701  H     
60   H         6.1762   45.9360   14.5940  H     
61   H         3.1053   39.6920   13.9967  H     
62   H         5.5780   39.6823   18.5851  H     
63   H         9.6460   40.8811   18.6398  H     
64   H         9.4090   50.2813   13.8688  H     
65   H         7.6296   48.0732   10.7451  H     
66   H         6.9934   40.0877   12.4062  H     
67   H         4.6793   39.4001   12.1376  H     
68   H        10.1205   39.0373   20.0680  H     
69   H         6.0910   37.8299   19.9224  H     
70   H         6.9105   50.1287    9.7105  H     
71   H         8.6636   52.3233   12.8297  H     
72   H         7.4130   52.2586   10.7573  H     
73   H         8.3764   37.4660   20.6813  H     
@<TRIPOS>BOND
     1    1    2 1
     2    1    3 1
     3    1    7 1
     4    2    6 2
     5    3   10 1
     6    3   11 1
     7    3   13 1
     8    4    5 1
     9    4   12 2
    10    4   16 1
    11    4   17 1
    12    5    9 1
    13    5   14 1
    14    5   15 1
    15    6    8 1
    16    7    8 2
    17    7   27 1
    18    8   33 1
    19    9   18 1
    20    9   19 2
    21   10   22 1
    22   11   21 1
    23   13   34 2
    24   13   35 1
    25   18   25 2
    26   19   24 1
    27   20   23 1
    28   20   26 1
    29   21   24 2
    30   21   25 1
    31   22   28 1
    32   22   29 2
    33   23   30 2
    34   23   31 1
    35   26   32 1
    36   27   38 2
    37   28   31 2
    38   29   30 1
    39   32   36 2
    40   32   37 1
    41   33   39 2
    42   34   41 1
    43   35   40 2
    44   36   43 1
    45   37   42 2
    46   38   39 1
    47   40   45 1
    48   41   45 2
    49   42   44 1
    50   43   44 2
    51   10   46 1
    52   10   47 1
    53   11   48 1
    54   11   49 1
    55   18   50 1
    56   19   51 1
    57   24   52 1
    58   25   53 1
    59   26   54 1
    60   26   55 1
    61   27   56 1
    62   28   57 1
    63   29   58 1
    64   30   59 1
    65   31   60 1
    66   33   61 1
    67   34   62 1
    68   35   63 1
    69   36   64 1
    70   37   65 1
    71   38   66 1
    72   39   67 1
    73   40   68 1
    74   41   69 1
    75   42   70 1
    76   43   71 1
    77   44   72 1
    78   45   73 1
@<TRIPOS>PROPERTY_DATA
  Total_Score	| 13.5034
  Crash		| -1.9623
  Polar		| 7.2552
  FragIndex	| 1
  FragRMSD	| 1.012

