@<TRIPOS>MOLECULE
BindingDB_50142329
 71 76 0 0 0
SMALL
NO_CHARGES


@<TRIPOS>ATOM
1    C         7.0503   42.3687   17.2020  C     
2    N         5.9447   41.6649   16.5418  N     
3    N         4.8089   41.4166   17.0892  N     
4    C         7.5323   43.4508   16.2715  C     
5    N         6.7974   44.0601   15.3052  N     
6    P         9.9541   46.1139   23.4886  P     
7    P         8.5607   36.3014   22.0526  P     
8    C         7.3054   37.3512   21.7270  C     
9    C        10.5245   45.6294   21.9977  C     
10   N         4.0240   40.7407   16.3653  N     
11   C         5.9014   41.1059   15.3105  C     
12   C         7.4080   45.0072   14.5324  C     
13   S         9.1077   44.1458   16.1779  S     
14   C         4.6543   40.4998   15.2178  C     
15   C         8.7495   45.2185   14.8917  C     
16   C         6.5399   43.0729   18.5276  C     
17   C         8.2025   41.3222   17.4965  C     
18   C         7.5720   38.2827   20.5826  C     
19   C         9.4648   45.0013   21.1426  C     
20   O         8.6771   35.2926   21.0291  O     
21   O        10.9966   46.6810   24.3047  O     
22   C         6.7584   45.6310   13.4243  C     
23   F         7.0451   38.0865   22.8598  F     
24   F        11.5632   44.7456   22.1819  F     
25   F         6.1820   36.5768   21.5371  F     
26   F        11.0939   46.7390   21.4099  F     
27   O         9.9049   37.0506   22.1805  O     
28   O         8.8602   47.1887   23.3492  O     
29   O         9.3302   44.9698   24.3118  O     
30   O         8.2923   35.5845   23.3960  O     
31   C         6.6775   38.4129   19.4898  C     
32   C         9.0592   43.6590   21.3567  C     
33   C         8.7185   39.1186   20.5808  C     
34   C         8.8360   45.7091   20.0876  C     
35   C         7.5332   43.7329   19.4301  C     
36   C         7.9874   40.2585   18.5280  C     
37   C         6.8853   39.3761   18.4804  C     
38   C         8.9201   40.0849   19.5802  C     
39   C         8.0904   43.0471   20.5335  C     
40   C         7.8912   45.0888   19.2444  C     
41   C         6.7992   41.0302   14.2245  C     
42   C         4.2493   39.7935   14.0733  C     
43   C         7.2457   46.8308   12.8405  C     
44   C         5.6247   45.0194   12.8288  C     
45   C         6.4134   40.3274   13.0624  C     
46   C         5.1440   39.7157   12.9842  C     
47   C         5.0227   45.5661   11.6809  C     
48   C         6.6447   47.3774   11.6933  C     
49   C         5.5356   46.7437   11.1077  C     
50   H         9.4267   45.8465   14.4521  H     
51   H         5.7937   43.8253   18.2551  H     
52   H         5.9919   42.3405   19.1243  H     
53   H         8.4617   40.7933   16.5723  H     
54   H         9.1018   41.8746   17.7695  H     
55   H         5.8570   37.8078   19.4169  H     
56   H         9.4667   43.1099   22.1166  H     
57   H         9.4047   39.0499   21.3370  H     
58   H         9.0621   46.6899   19.9121  H     
59   H         6.2172   39.4301   17.7079  H     
60   H         9.7715   40.6507   19.6131  H     
61   H         7.8047   42.0827   20.7434  H     
62   H         7.4654   45.6373   18.4920  H     
63   H         7.7131   41.4835   14.2665  H     
64   H         3.3300   39.3468   14.0312  H     
65   H         8.0458   47.3226   13.2419  H     
66   H         5.2423   44.1484   13.2044  H     
67   H         7.0587   40.2621   12.2717  H     
68   H         4.8693   39.2178   12.1358  H     
69   H         4.2180   45.1027   11.2538  H     
70   H         7.0136   48.2389   11.2825  H     
71   H         5.1010   47.1387   10.2705  H     
@<TRIPOS>BOND
     1    1    2 1
     2    1    4 1
     3    1   16 1
     4    1   17 1
     5    2    3 1
     6    2   11 1
     7    3   10 2
     8    4    5 2
     9    4   13 1
    10    5   12 1
    11    6    9 1
    12    6   21 2
    13    6   28 1
    14    6   29 1
    15    7    8 1
    16    7   20 2
    17    7   27 1
    18    7   30 1
    19    8   18 1
    20    8   23 1
    21    8   25 1
    22    9   19 1
    23    9   24 1
    24    9   26 1
    25   10   14 1
    26   11   14 2
    27   11   41 1
    28   12   15 2
    29   12   22 1
    30   13   15 1
    31   14   42 1
    32   16   35 1
    33   17   36 1
    34   18   31 1
    35   18   33 2
    36   19   32 2
    37   19   34 1
    38   22   43 2
    39   22   44 1
    40   31   37 2
    41   32   39 1
    42   33   38 1
    43   34   40 2
    44   35   39 2
    45   35   40 1
    46   36   37 1
    47   36   38 2
    48   41   45 2
    49   42   46 2
    50   43   48 1
    51   44   47 2
    52   45   46 1
    53   47   49 1
    54   48   49 2
    55   15   50 1
    56   16   51 1
    57   16   52 1
    58   17   53 1
    59   17   54 1
    60   31   55 1
    61   32   56 1
    62   33   57 1
    63   34   58 1
    64   37   59 1
    65   38   60 1
    66   39   61 1
    67   40   62 1
    68   41   63 1
    69   42   64 1
    70   43   65 1
    71   44   66 1
    72   45   67 1
    73   46   68 1
    74   47   69 1
    75   48   70 1
    76   49   71 1
@<TRIPOS>PROPERTY_DATA
  Total_Score	| 14.4492
  Crash		| -1.8908
  Polar		| 8.4656
  FragIndex	| 1
  FragRMSD	| 0.856

