@<TRIPOS>MOLECULE
BindingDB_50142335
 69 73 0 0 0
SMALL
NO_CHARGES


@<TRIPOS>ATOM
1    N         6.0219   41.1920   16.7600  N     
2    N         4.7960   41.1610   17.1696  N     
3    P         6.9544   47.8650   10.4703  P     
4    P         9.9165   46.0578   23.4025  P     
5    C        10.5048   45.5860   21.9136  C     
6    C         8.3310   48.0808   11.3830  C     
7    N         3.9744   40.6910   16.3418  N     
8    C         7.1014   41.6668   17.6498  C     
9    C         6.0082   40.6734   15.4999  C     
10   C         4.6687   40.3751   15.2545  C     
11   C         8.4753   47.0535   12.4664  C     
12   C         9.4623   44.9224   21.0668  C     
13   O         6.7398   48.9691    9.5685  O     
14   O         9.3495   44.9703   24.1600  O     
15   C         6.5607   42.8731   18.5436  C     
16   C         7.5125   40.5198   18.5725  C     
17   C         8.0639   43.1825   15.7655  C     
18   F        11.5701   44.7345   22.0993  F     
19   F         8.2883   49.3695   11.8676  F     
20   F        11.0458   46.7085   21.3272  F     
21   F         9.4298   48.0489   10.5522  F     
22   C         8.9728   44.1265   15.4744  C     
23   O         7.0349   46.5886    9.6126  O     
24   O         5.7138   47.7580   11.3784  O     
25   O        11.0280   46.6617   24.2809  O     
26   O         8.8209   47.1380   23.3035  O     
27   C         9.0339   43.6035   21.3592  C     
28   C         8.8819   45.7301   12.1518  C     
29   C         8.8759   45.5693   19.9529  C     
30   C         8.2221   47.3536   13.8304  C     
31   C         8.3255   42.1934   16.7948  C     
32   C         7.5303   43.5861   19.4285  C     
33   C         8.7816   45.0747   14.4977  C     
34   C         8.0741   42.9528   20.5648  C     
35   C         7.9205   44.9150   19.1531  C     
36   C         8.3707   46.3800   14.8327  C     
37   C         9.0422   44.7550   13.1506  C     
38   C         6.9540   40.4100   14.4788  C     
39   C         4.2099   39.8538   14.0371  C     
40   C         8.8262   40.3661   19.1020  C     
41   C         6.5515   39.5694   19.0161  C     
42   C         6.5142   39.9227   13.2254  C     
43   C         5.1445   39.6538   13.0017  C     
44   C         6.8872   38.4980   19.8639  C     
45   C         9.1666   39.3099   19.9671  C     
46   C         8.2000   38.3657   20.3360  C     
47   H         6.1019   43.6064   17.8773  H     
48   H         5.7403   42.5255   19.1786  H     
49   H         7.2052   43.1529   15.2647  H     
50   H         9.8614   44.1186   15.9326  H     
51   H         9.4204   43.1027   22.1618  H     
52   H         9.0733   45.4600   11.1881  H     
53   H         9.1343   46.5274   19.7111  H     
54   H         7.9255   48.2923   14.1094  H     
55   H         9.0671   42.6504   17.4557  H     
56   H         8.8217   41.3397   16.3287  H     
57   H         7.7718   42.0129   20.8250  H     
58   H         7.5152   45.4176   18.3587  H     
59   H         8.2059   46.6336   15.8138  H     
60   H         9.3412   43.8093   12.8856  H     
61   H         7.9464   40.5655   14.6178  H     
62   H         3.2169   39.6518   13.8897  H     
63   H         9.5656   41.0330   18.8885  H     
64   H         5.5792   39.6325   18.7260  H     
65   H         7.1899   39.7631   12.4757  H     
66   H         4.8292   39.3186   12.0865  H     
67   H         6.1773   37.8156   20.1324  H     
68   H        10.1218   39.2272   20.3233  H     
69   H         8.4504   37.5830   20.9440  H     
@<TRIPOS>BOND
     1    1    2 1
     2    1    8 1
     3    1    9 1
     4    2    7 2
     5    3    6 1
     6    3   13 2
     7    3   23 1
     8    3   24 1
     9    4    5 1
    10    4   14 2
    11    4   25 1
    12    4   26 1
    13    5   12 1
    14    5   18 1
    15    5   20 1
    16    6   11 1
    17    6   19 1
    18    6   21 1
    19    7   10 1
    20    8   15 1
    21    8   16 1
    22    8   31 1
    23    9   10 2
    24    9   38 1
    25   10   39 1
    26   11   28 2
    27   11   30 1
    28   12   27 1
    29   12   29 2
    30   15   32 1
    31   16   40 2
    32   16   41 1
    33   17   22 2
    34   17   31 1
    35   22   33 1
    36   27   34 2
    37   28   37 1
    38   29   35 1
    39   30   36 2
    40   32   34 1
    41   32   35 2
    42   33   36 1
    43   33   37 2
    44   38   42 2
    45   39   43 2
    46   40   45 1
    47   41   44 2
    48   42   43 1
    49   44   46 1
    50   45   46 2
    51   15   47 1
    52   15   48 1
    53   17   49 1
    54   22   50 1
    55   27   51 1
    56   28   52 1
    57   29   53 1
    58   30   54 1
    59   31   55 1
    60   31   56 1
    61   34   57 1
    62   35   58 1
    63   36   59 1
    64   37   60 1
    65   38   61 1
    66   39   62 1
    67   40   63 1
    68   41   64 1
    69   42   65 1
    70   43   66 1
    71   44   67 1
    72   45   68 1
    73   46   69 1
@<TRIPOS>PROPERTY_DATA
  Total_Score	| 13.0976
  Crash		| -1.6328
  Polar		| 8.3907
  FragIndex	| 1
  FragRMSD	| 0.717

