@<TRIPOS>MOLECULE
BindingDB_50142324
 60 64 0 0 0
SMALL
NO_CHARGES


@<TRIPOS>ATOM
1    C         7.1085   42.2970   17.2845  C     
2    N         6.0255   41.5377   16.6503  N     
3    N         4.9239   41.2473   17.2365  N     
4    C         7.5889   43.3061   16.2805  C     
5    P         8.7661   36.1876   22.0581  P     
6    P         9.9442   46.0937   23.5087  P     
7    C        10.5697   45.5778   22.0500  C     
8    C         7.4566   37.1762   21.7684  C     
9    N         4.1248   40.5706   16.5285  N     
10   N         8.8003   43.4062   15.7215  N     
11   N         8.7524   44.3531   14.8952  N     
12   N         7.6262   44.8438   14.8878  N     
13   C         5.9470   41.0125   15.4021  C     
14   N         6.8569   44.2672   15.7016  N     
15   C         4.7102   40.3796   15.3469  C     
16   C         6.5776   43.0818   18.5508  C     
17   C         8.2864   41.2960   17.6459  C     
18   C         7.6816   38.1859   20.6791  C     
19   C         9.5322   44.9762   21.1504  C     
20   O         9.9825   36.9507   22.1883  O     
21   O         9.3710   45.0326   24.2948  O     
22   F        11.5610   44.6541   22.3060  F     
23   F         7.1530   37.8283   22.9415  F     
24   F        11.2161   46.6540   21.4808  F     
25   F         6.3799   36.3516   21.5279  F     
26   O         8.5640   35.4138   23.3787  O     
27   O         8.9494   35.1496   20.9318  O     
28   O        11.0355   46.7352   24.3868  O     
29   O         8.8463   47.1574   23.3381  O     
30   C         8.9600   45.6842   20.0638  C     
31   C         8.7673   39.0931   20.7520  C     
32   C         9.0768   43.6566   21.3824  C     
33   C         6.8172   38.3010   19.5588  C     
34   C         8.0696   40.2295   18.6815  C     
35   C         7.5831   43.7490   19.4374  C     
36   C         8.0090   45.0799   19.2162  C     
37   C         8.9618   40.0897   19.7724  C     
38   C         7.0189   39.2896   18.5729  C     
39   C         8.0907   43.0749   20.5700  C     
40   C         6.7874   40.9907   14.2652  C     
41   C         4.2521   39.7130   14.2002  C     
42   C         6.3336   40.3581   13.0867  C     
43   C         5.0733   39.7185   13.0548  C     
44   H         7.3498   45.4959   14.2796  H     
45   H         5.8556   43.8376   18.2316  H     
46   H         6.0070   42.3844   19.1640  H     
47   H         8.5937   40.7737   16.7389  H     
48   H         9.1526   41.8924   17.9468  H     
49   H         9.2294   46.6521   19.8778  H     
50   H         9.4281   39.0437   21.5344  H     
51   H         9.4568   43.1017   22.1543  H     
52   H         6.0277   37.6606   19.4404  H     
53   H         7.6221   45.6236   18.4394  H     
54   H         9.7552   40.7296   19.8779  H     
55   H         6.3901   39.3132   17.7674  H     
56   H         7.7508   42.1416   20.8112  H     
57   H         7.7018   41.4460   14.2766  H     
58   H         3.3423   39.2469   14.1982  H     
59   H         6.9196   40.3621   12.2483  H     
60   H         4.7499   39.2644   12.1988  H     
@<TRIPOS>BOND
     1    1    2 1
     2    1    4 1
     3    1   16 1
     4    1   17 1
     5    2    3 1
     6    2   13 1
     7    3    9 2
     8    4   10 1
     9    4   14 2
    10    5    8 1
    11    5   20 2
    12    5   26 1
    13    5   27 1
    14    6    7 1
    15    6   21 2
    16    6   28 1
    17    6   29 1
    18    7   19 1
    19    7   22 1
    20    7   24 1
    21    8   18 1
    22    8   23 1
    23    8   25 1
    24    9   15 1
    25   10   11 2
    26   11   12 1
    27   12   14 1
    28   13   15 2
    29   13   40 1
    30   15   41 1
    31   16   35 1
    32   17   34 1
    33   18   31 1
    34   18   33 2
    35   19   30 1
    36   19   32 2
    37   30   36 2
    38   31   37 2
    39   32   39 1
    40   33   38 1
    41   34   37 1
    42   34   38 2
    43   35   36 1
    44   35   39 2
    45   40   42 2
    46   41   43 2
    47   42   43 1
    48   12   44 1
    49   16   45 1
    50   16   46 1
    51   17   47 1
    52   17   48 1
    53   30   49 1
    54   31   50 1
    55   32   51 1
    56   33   52 1
    57   36   53 1
    58   37   54 1
    59   38   55 1
    60   39   56 1
    61   40   57 1
    62   41   58 1
    63   42   59 1
    64   43   60 1
@<TRIPOS>PROPERTY_DATA
  Total_Score	| 14.2910
  Crash		| -1.4751
  Polar		| 8.4910
  FragIndex	| 1
  FragRMSD	| 0.507

