@<TRIPOS>MOLECULE
BindingDB_13595
 65 69 0 0 0
SMALL
NO_CHARGES


@<TRIPOS>ATOM
1    C         6.8400   40.9683   14.2660  C     
2    C         6.4412   40.2852   13.0988  C     
3    C         5.1653   39.6851   13.0178  C     
4    C         4.2775   39.7648   14.1093  C     
5    C         5.9452   41.0456   15.3571  C     
6    C         4.6941   40.4519   15.2585  C     
7    N         4.0628   40.6852   16.4091  N     
8    N         4.8454   41.3491   17.1394  N     
9    N         5.9811   41.6028   16.5917  N     
10   C         7.3603   43.5486   16.2964  C     
11   C         8.6697   43.9997   15.9725  C     
12   C         8.8821   45.1232   15.1511  C     
13   C         7.7899   45.8159   14.6087  C     
14   C         6.4857   45.3745   14.8727  C     
15   C         6.2788   44.2614   15.7058  C     
16   C         6.5735   42.9885   18.6190  C     
17   C         7.5662   43.6922   19.4927  C     
18   C         7.9533   45.0339   19.2507  C     
19   C         8.9118   45.6686   20.0652  C     
20   C         9.5120   44.9947   21.1598  C     
21   C         9.0870   43.6690   21.4196  C     
22   C         8.0961   43.0558   20.6382  C     
23   C        10.5585   45.6285   22.0249  C     
24   F        11.5687   44.7197   22.2417  F     
25   F        11.1561   46.7236   21.4361  F     
26   P         9.9686   46.1399   23.5015  P     
27   O        10.9967   46.7093   24.3317  O     
28   O         8.8769   47.2115   23.3636  O     
29   O         9.3456   45.0033   24.3324  O     
30   C         7.0513   42.3820   17.2278  C     
31   C         8.2643   41.3917   17.4800  C     
32   C         8.0767   40.3210   18.5127  C     
33   C         6.9990   39.4014   18.4512  C     
34   C         6.8192   38.4242   19.4510  C     
35   C         8.8126   39.2253   20.5876  C     
36   C         9.0146   40.1602   19.5590  C     
37   C         7.7070   38.3292   20.5584  C     
38   P         8.7622   36.3416   21.9851  P     
39   O        10.0168   37.0372   22.1149  O     
40   O         8.5427   35.5648   23.3034  O     
41   O         8.8951   35.2957   20.8508  O     
42   C         7.4802   37.3718   21.6894  C     
43   F         7.2037   38.0924   22.8341  F     
44   F         6.3755   36.5621   21.4924  F     
45   H         7.7596   41.4073   14.3066  H     
46   H         7.0796   40.2230   12.3025  H     
47   H         4.8836   39.1926   12.1651  H     
48   H         3.3490   39.3350   14.0683  H     
49   H         9.5016   43.5338   16.3354  H     
50   H         9.8347   45.4331   14.9468  H     
51   H         7.9400   46.6361   14.0151  H     
52   H         5.6897   45.8644   14.4637  H     
53   H         5.3181   43.9607   15.8767  H     
54   H         6.1336   42.1710   19.1941  H     
55   H         5.7463   43.6817   18.4579  H     
56   H         7.5295   45.5662   18.4904  H     
57   H         9.1618   46.6378   19.8503  H     
58   H         9.4762   43.1360   22.2001  H     
59   H         7.7669   42.1354   20.9281  H     
60   H         8.5404   40.8961   16.5476  H     
61   H         9.1325   41.9964   17.7651  H     
62   H         6.3358   39.4302   17.6693  H     
63   H         6.0169   37.7903   19.3682  H     
64   H         9.4935   39.1983   21.3579  H     
65   H         9.8608   40.7299   19.5863  H     
@<TRIPOS>BOND
     1    1    2 2
     2    1    5 1
     3    2    3 1
     4    3    4 2
     5    4    6 1
     6    5    6 2
     7    5    9 1
     8    6    7 1
     9    7    8 2
    10    8    9 1
    11    9   30 1
    12   10   11 1
    13   10   15 2
    14   30   10 1
    15   11   12 2
    16   12   13 1
    17   13   14 2
    18   14   15 1
    19   16   17 1
    20   16   30 1
    21   17   18 2
    22   17   22 1
    23   18   19 1
    24   19   20 2
    25   20   21 1
    26   20   23 1
    27   21   22 2
    28   23   24 1
    29   23   25 1
    30   23   26 1
    31   26   27 2
    32   26   28 1
    33   26   29 1
    34   30   31 1
    35   31   32 1
    36   32   33 1
    37   32   36 2
    38   33   34 2
    39   34   37 1
    40   35   36 1
    41   35   37 2
    42   37   42 1
    43   38   39 2
    44   38   40 1
    45   38   41 1
    46   38   42 1
    47   42   43 1
    48   42   44 1
    49    1   45 1
    50    2   46 1
    51    3   47 1
    52    4   48 1
    53   11   49 1
    54   12   50 1
    55   13   51 1
    56   14   52 1
    57   15   53 1
    58   16   54 1
    59   16   55 1
    60   18   56 1
    61   19   57 1
    62   21   58 1
    63   22   59 1
    64   31   60 1
    65   31   61 1
    66   33   62 1
    67   34   63 1
    68   35   64 1
    69   36   65 1
@<TRIPOS>PROPERTY_DATA
  Total_Score	| 14.6591
  Crash		| -1.5790
  Polar		| 8.6490
  FragIndex	| 1
  FragRMSD	| 0.718

