@<TRIPOS>MOLECULE
BindingDB_13598
 69 74 0 0 0
SMALL
NO_CHARGES


@<TRIPOS>ATOM
1    C         7.6427   45.9267   14.6537  C     
2    C         6.3534   45.4027   14.8548  C     
3    C         6.1827   44.2637   15.6660  C     
4    C         7.2721   43.6119   16.3106  C     
5    C         8.5640   44.1578   16.0562  C     
6    C         8.7481   45.2995   15.2486  C     
7    C         8.2327   41.4626   17.4701  C     
8    C         8.1167   40.2972   18.4010  C     
9    C         7.2223   39.2273   18.1668  C     
10   C         7.1161   38.1523   19.0643  C     
11   C         7.9375   38.0279   20.2268  C     
12   C         8.8771   39.0847   20.4076  C     
13   C         8.9636   40.1844   19.5309  C     
14   C         7.8516   36.8819   21.1382  C     
15   C         8.8783   36.5783   22.0808  C     
16   C         8.8076   35.4596   22.9337  C     
17   C         7.6856   34.6148   22.8909  C     
18   C         6.6458   34.8891   21.9967  C     
19   C         6.7331   35.9933   21.1275  C     
20   C         6.9904   42.4232   17.2193  C     
21   C         6.5116   42.9919   18.6246  C     
22   C         7.5298   43.6721   19.4732  C     
23   C         8.0885   43.0235   20.5976  C     
24   C         9.0572   43.6486   21.3914  C     
25   C         9.4828   44.9782   21.1335  C     
26   C         8.8873   45.6429   20.0278  C     
27   C         7.9277   45.0066   19.2244  C     
28   C        10.5260   45.6306   21.9881  C     
29   F        11.5520   44.7384   22.2170  F     
30   F        11.1204   46.7199   21.3864  F     
31   P         9.9382   46.1513   23.4527  P     
32   O         8.8631   47.1266   23.3791  O     
33   O         9.3395   45.0216   24.3086  O     
34   O        11.0189   46.7704   24.3470  O     
35   N         5.9326   41.6424   16.5759  N     
36   N         4.8144   41.3378   17.1313  N     
37   N         4.0469   40.6469   16.4073  N     
38   C         4.6725   40.4548   15.2434  C     
39   C         5.8951   41.1052   15.3339  C     
40   C         6.4080   40.3853   13.0655  C     
41   C         6.7790   41.0859   14.2306  C     
42   C         4.2779   39.7562   14.0931  C     
43   C         5.1624   39.7167   12.9966  C     
44   H         7.7730   46.7695   14.0932  H     
45   H         5.5426   45.8544   14.4123  H     
46   H         5.2334   43.9062   15.7772  H     
47   H         9.4042   43.7357   16.4511  H     
48   H         9.6885   45.6779   15.1052  H     
49   H         9.0538   42.0814   17.8316  H     
50   H         8.5719   41.0522   16.5170  H     
51   H         6.6472   39.2091   17.3270  H     
52   H         6.4164   37.4506   18.8253  H     
53   H         9.5451   39.0819   21.1760  H     
54   H         9.6699   40.9066   19.7188  H     
55   H         9.7118   37.1587   22.1864  H     
56   H         9.5709   35.2598   23.5774  H     
57   H         7.6332   33.8039   23.5130  H     
58   H         5.8307   34.2762   21.9573  H     
59   H         5.9515   36.1076   20.4882  H     
60   H         5.6828   43.6885   18.4806  H     
61   H         6.0764   42.1662   19.1846  H     
62   H         7.7893   42.0819   20.8549  H     
63   H         9.4565   43.1127   22.1676  H     
64   H         9.1450   46.6044   19.7944  H     
65   H         7.5043   45.5370   18.4594  H     
66   H         7.0453   40.3551   12.2636  H     
67   H         7.6736   41.5713   14.2645  H     
68   H         3.3751   39.2770   14.0560  H     
69   H         4.9038   39.2065   12.1508  H     
@<TRIPOS>BOND
     1    1    2 2
     2    1    6 1
     3    2    3 1
     4    3    4 2
     5    4    5 1
     6    4   20 1
     7    5    6 2
     8    7    8 1
     9    7   20 1
    10    8    9 1
    11    8   13 2
    12    9   10 2
    13   10   11 1
    14   11   12 2
    15   11   14 1
    16   12   13 1
    17   14   15 2
    18   14   19 1
    19   15   16 1
    20   16   17 2
    21   17   18 1
    22   18   19 2
    23   20   21 1
    24   20   35 1
    25   21   22 1
    26   22   23 1
    27   22   27 2
    28   23   24 2
    29   24   25 1
    30   25   26 2
    31   25   28 1
    32   26   27 1
    33   28   29 1
    34   28   30 1
    35   28   31 1
    36   31   32 2
    37   31   33 1
    38   31   34 1
    39   35   36 1
    40   35   39 1
    41   36   37 2
    42   37   38 1
    43   38   39 2
    44   38   42 1
    45   39   41 1
    46   40   41 2
    47   40   43 1
    48   42   43 2
    49    1   44 1
    50    2   45 1
    51    3   46 1
    52    5   47 1
    53    6   48 1
    54    7   49 1
    55    7   50 1
    56    9   51 1
    57   10   52 1
    58   12   53 1
    59   13   54 1
    60   15   55 1
    61   16   56 1
    62   17   57 1
    63   18   58 1
    64   19   59 1
    65   21   60 1
    66   21   61 1
    67   23   62 1
    68   24   63 1
    69   26   64 1
    70   27   65 1
    71   40   66 1
    72   41   67 1
    73   42   68 1
    74   43   69 1
@<TRIPOS>PROPERTY_DATA
  Total_Score	| 14.6692
  Crash		| -1.3487
  Polar		| 7.5680
  FragIndex	| 1
  FragRMSD	| 0.844

