@<TRIPOS>MOLECULE
BindingDB_50142333
 65 69 0 0 0
SMALL
NO_CHARGES


@<TRIPOS>ATOM
1    N         5.9375   41.4381   16.6471  N     
2    N         4.7118   41.3655   17.0368  N     
3    P         9.9209   46.0844   23.4411  P     
4    C        10.5080   45.5928   21.9611  C     
5    N         3.9252   40.7997   16.2280  N     
6    C         7.0173   41.8553   17.5654  C     
7    C         5.9575   40.9012   15.4006  C     
8    C         4.6511   40.4730   15.1602  C     
9    C         9.4568   44.9416   21.1165  C     
10   O         9.3659   45.0006   24.2082  O     
11   C         6.4985   42.9981   18.5596  C     
12   C         7.4130   40.6388   18.4079  C     
13   F        11.5662   44.7368   22.1762  F     
14   F        11.0709   46.6853   21.3360  F     
15   O        11.0384   46.6857   24.3059  O     
16   O         8.8251   47.1561   23.3484  O     
17   C         9.0213   43.6178   21.3731  C     
18   C         8.8394   45.6324   20.0489  C     
19   C         7.4856   43.6706   19.4625  C     
20   C         8.2141   42.4607   16.7291  C     
21   C         8.0570   42.9941   20.5616  C     
22   C         7.8674   45.0165   19.2472  C     
23   C         6.9189   40.7164   14.3849  C     
24   C         8.7974   45.8045   14.6357  C     
25   C         7.8536   43.6379   15.7649  C     
26   C         4.2675   39.8119   13.9813  C     
27   C         8.7087   40.4284   18.9671  C     
28   C         6.4224   39.6794   18.7577  C     
29   C         9.0588   44.4561   15.2289  C     
30   C         7.8071   46.7134   15.0934  C     
31   C         9.6196   46.2138   13.5556  C     
32   C         6.5611   40.0776   13.1850  C     
33   C         5.2427   39.6034   12.9912  C     
34   C         8.9737   39.3493   19.8332  C     
35   C         6.6844   38.5940   19.6055  C     
36   C         9.4844   47.4905   12.9772  C     
37   C         7.6879   47.9998   14.5386  C     
38   C         8.5256   48.3904   13.4785  C     
39   C         7.9638   38.4296   20.1537  C     
40   H         6.0145   43.7611   17.9447  H     
41   H         5.6985   42.6039   19.1878  H     
42   H         9.4112   43.0933   22.1601  H     
43   H         9.0986   46.5995   19.8382  H     
44   H         8.9728   42.8501   17.4189  H     
45   H         8.7148   41.6442   16.2054  H     
46   H         7.7632   42.0392   20.7828  H     
47   H         7.4421   45.5601   18.4921  H     
48   H         7.8550   41.1018   14.4756  H     
49   H         7.2746   43.2871   14.8975  H     
50   H         7.2182   44.3358   16.3286  H     
51   H         3.3118   39.4810   13.8560  H     
52   H         9.4758   41.0749   18.7880  H     
53   H         5.4751   39.7575   18.3960  H     
54   H         9.5450   43.8537   14.4532  H     
55   H         9.7741   44.5961   16.0540  H     
56   H         7.1652   46.4743   15.8517  H     
57   H        10.3375   45.5834   13.1840  H     
58   H         7.2587   39.9401   12.4439  H     
59   H         4.9939   39.1334   12.1146  H     
60   H         9.9084   39.2331   20.2363  H     
61   H         5.9391   37.9321   19.8329  H     
62   H        10.0926   47.7704   12.2029  H     
63   H         6.9951   48.6505   14.9150  H     
64   H         8.4428   49.3308   13.0784  H     
65   H         8.1572   37.6469   20.7820  H     
@<TRIPOS>BOND
     1    1    2 1
     2    1    6 1
     3    1    7 1
     4    2    5 2
     5    3    4 1
     6    3   10 2
     7    3   15 1
     8    3   16 1
     9    4    9 1
    10    4   13 1
    11    4   14 1
    12    5    8 1
    13    6   11 1
    14    6   12 1
    15    6   20 1
    16    7    8 2
    17    7   23 1
    18    8   26 1
    19    9   17 1
    20    9   18 2
    21   11   19 1
    22   12   27 1
    23   12   28 2
    24   17   21 2
    25   18   22 1
    26   19   21 1
    27   19   22 2
    28   20   25 1
    29   23   32 2
    30   24   29 1
    31   24   30 2
    32   24   31 1
    33   25   29 1
    34   26   33 2
    35   27   34 2
    36   28   35 1
    37   30   37 1
    38   31   36 2
    39   32   33 1
    40   34   39 1
    41   35   39 2
    42   36   38 1
    43   37   38 2
    44   11   40 1
    45   11   41 1
    46   17   42 1
    47   18   43 1
    48   20   44 1
    49   20   45 1
    50   21   46 1
    51   22   47 1
    52   23   48 1
    53   25   49 1
    54   25   50 1
    55   26   51 1
    56   27   52 1
    57   28   53 1
    58   29   54 1
    59   29   55 1
    60   30   56 1
    61   31   57 1
    62   32   58 1
    63   33   59 1
    64   34   60 1
    65   35   61 1
    66   36   62 1
    67   37   63 1
    68   38   64 1
    69   39   65 1
@<TRIPOS>PROPERTY_DATA
  Total_Score	| 13.0947
  Crash		| -1.9704
  Polar		| 7.3051
  FragIndex	| 1
  FragRMSD	| 0.485

