@<TRIPOS>MOLECULE
BindingDB_16222
 51 53 0 0 0
SMALL
NO_CHARGES


@<TRIPOS>ATOM
1    C        44.4390   34.1554  111.2415  C     
2    C        43.0313   34.1302  111.0844  C     
3    C        42.2635   35.2932  111.2295  C     
4    C        42.8942   36.5192  111.4889  C     
5    C        45.0825   35.3926  111.5527  C     
6    C        44.2945   36.5799  111.6523  C     
7    C        46.4728   35.5032  111.8173  C     
8    C        44.9203   37.8145  111.9359  C     
9    C        47.0386   36.7570  112.1169  C     
10   N        46.2546   37.8622  112.1490  N     
11   S        45.2740   32.6298  111.0243  S     
12   O        44.4831   31.6209  110.0866  O     
13   O        46.6660   32.8361  110.2815  O     
14   N        45.5878   31.9142  112.5174  N     
15   C        44.5405   31.5114  113.3951  C     
16   C        43.8437   30.2073  112.9089  C     
17   N        42.6717   29.8839  113.7565  N     
18   C        42.1577   28.5006  113.6991  C     
19   C        41.9740   27.8655  112.2961  C     
20   O        43.2200   27.2553  111.8748  O     
21   C        43.1837   26.5211  110.6201  C     
22   C        42.8774   27.4008  109.4621  C     
23   C        41.6733   27.2398  108.7265  C     
24   C        41.3548   28.1260  107.6820  C     
25   C        43.5011   29.2464  107.9865  C     
26   C        43.8083   28.3694  109.0389  C     
27   C        42.2645   29.1379  107.3138  C     
28   Cl       41.8430   30.2569  106.1064  Cl    
29   H        42.5490   33.2500  110.9064  H     
30   H        41.2451   35.2482  111.1291  H     
31   H        42.3161   37.3660  111.5639  H     
32   H        47.0928   34.6955  111.8167  H     
33   H        44.3821   38.6820  111.9796  H     
34   H        48.0441   36.8439  112.3047  H     
35   H        46.4889   31.6020  112.6947  H     
36   H        44.9807   31.3418  114.3814  H     
37   H        43.7915   32.3069  113.5090  H     
38   H        43.5000   30.3561  111.8735  H     
39   H        44.5790   29.3890  112.9409  H     
40   H        42.9180   30.0678  114.7322  H     
41   H        41.9214   30.5261  113.5031  H     
42   H        42.8357   27.8720  114.2732  H     
43   H        41.1948   28.5040  114.2025  H     
44   H        41.1871   27.0991  112.3663  H     
45   H        41.6501   28.6260  111.5801  H     
46   H        44.1904   26.0951  110.4764  H     
47   H        42.4951   25.6581  110.6825  H     
48   H        40.9972   26.5220  108.9842  H     
49   H        40.4699   28.0306  107.1902  H     
50   H        44.1766   29.9631  107.7042  H     
51   H        44.6929   28.4810  109.5314  H     
@<TRIPOS>BOND
     1    1    2 2
     2    1    5 1
     3    1   11 1
     4    2    3 1
     5    3    4 2
     6    4    6 1
     7    5    6 2
     8    5    7 1
     9    6    8 1
    10    7    9 2
    11    8   10 2
    12    9   10 1
    13   11   12 2
    14   11   13 2
    15   11   14 1
    16   14   15 1
    17   15   16 1
    18   16   17 1
    19   17   18 1
    20   18   19 1
    21   19   20 1
    22   20   21 1
    23   21   22 1
    24   22   23 2
    25   22   26 1
    26   23   24 1
    27   24   27 2
    28   25   26 2
    29   25   27 1
    30   27   28 1
    31    2   29 1
    32    3   30 1
    33    4   31 1
    34    7   32 1
    35    8   33 1
    36    9   34 1
    37   14   35 1
    38   15   36 1
    39   15   37 1
    40   16   38 1
    41   16   39 1
    42   17   40 1
    43   17   41 1
    44   18   42 1
    45   18   43 1
    46   19   44 1
    47   19   45 1
    48   21   46 1
    49   21   47 1
    50   23   48 1
    51   24   49 1
    52   25   50 1
    53   26   51 1
@<TRIPOS>PROPERTY_DATA
  Total_Score	| 11.0549
  Crash		| -1.0662
  Polar		| 5.0166
  FragIndex	| 1
  FragRMSD	| 0.171

