@<TRIPOS>MOLECULE
BindingDB_15191
 51 53 0 0 0
SMALL
NO_CHARGES


@<TRIPOS>ATOM
1    C        44.5720   34.0107  111.1587  C     
2    C        43.1674   33.9971  111.0006  C     
3    C        42.3961   35.1498  111.1949  C     
4    C        43.0106   36.3521  111.5501  C     
5    C        45.2088   35.2293  111.5365  C     
6    C        44.4090   36.4020  111.7212  C     
7    C        46.5930   35.3641  111.7463  C     
8    C        45.0508   37.5894  112.0864  C     
9    C        47.1069   36.5631  112.0883  C     
10   N        46.3317   37.6076  112.2455  N     
11   S        45.3921   32.4748  110.8900  S     
12   O        44.5547   31.5218  109.9292  O     
13   O        46.7870   32.7080  110.1648  O     
14   N        45.6826   31.6012  112.3073  N     
15   C        44.8645   31.6937  113.4721  C     
16   C        43.3495   31.4364  113.2137  C     
17   N        42.7908   30.1925  113.7994  N     
18   C        43.3089   28.8917  113.3141  C     
19   C        42.5803   28.3144  112.0773  C     
20   O        43.3374   27.1703  111.6084  O     
21   C        42.9557   26.5812  110.3494  C     
22   C        42.8572   27.5193  109.1968  C     
23   C        43.7807   29.3569  107.8603  C     
24   C        43.8886   28.4510  108.9285  C     
25   C        41.7331   27.4855  108.3344  C     
26   C        41.6278   28.3828  107.2554  C     
27   C        42.6553   29.3152  107.0183  C     
28   H        42.6774   33.1360  110.7430  H     
29   H        41.3850   35.1081  111.0792  H     
30   H        42.4396   37.1868  111.6919  H     
31   H        47.2096   34.5891  111.6600  H     
32   H        44.5472   38.4338  112.2274  H     
33   H        48.0849   36.6634  112.2253  H     
34   H        46.5421   31.1561  112.3874  H     
35   H        45.2436   30.9813  114.2131  H     
36   H        44.9949   32.6962  113.8982  H     
37   H        42.7839   32.2590  113.6744  H     
38   H        43.1097   31.4594  112.1552  H     
39   H        42.9424   30.2314  114.8067  H     
40   H        41.7827   30.2244  113.6320  H     
41   H        44.3807   28.9823  113.1136  H     
42   H        43.2044   28.1734  114.1391  H     
43   H        41.5526   28.0386  112.3469  H     
44   H        42.5519   29.0799  111.2971  H     
45   H        43.7188   25.8433  110.1088  H     
46   H        42.0272   26.0361  110.4947  H     
47   H        44.5119   30.0477  107.6978  H     
48   H        44.7078   28.4985  109.5435  H     
49   H        40.9697   26.8197  108.4958  H     
50   H        40.8099   28.3586  106.6439  H     
51   H        42.5767   29.9795  106.2413  H     
@<TRIPOS>BOND
     1    1    2 1
     2    1    5 2
     3    1   11 1
     4    2    3 2
     5    3    4 1
     6    4    6 2
     7    5    6 1
     8    5    7 1
     9    6    8 1
    10    7    9 2
    11    8   10 2
    12    9   10 1
    13   11   12 2
    14   11   13 2
    15   11   14 1
    16   14   15 1
    17   15   16 1
    18   16   17 1
    19   17   18 1
    20   18   19 1
    21   19   20 1
    22   20   21 1
    23   21   22 1
    24   22   24 1
    25   22   25 2
    26   23   24 2
    27   23   27 1
    28   25   26 1
    29   26   27 2
    30    2   28 1
    31    3   29 1
    32    4   30 1
    33    7   31 1
    34    8   32 1
    35    9   33 1
    36   14   34 1
    37   15   35 1
    38   15   36 1
    39   16   37 1
    40   16   38 1
    41   17   39 1
    42   17   40 1
    43   18   41 1
    44   18   42 1
    45   19   43 1
    46   19   44 1
    47   21   45 1
    48   21   46 1
    49   23   47 1
    50   24   48 1
    51   25   49 1
    52   26   50 1
    53   27   51 1
@<TRIPOS>PROPERTY_DATA
  Total_Score	| 11.5405
  Crash		| -1.1759
  Polar		| 5.1173
  FragIndex	| 1
  FragRMSD	| 0.506

