@<TRIPOS>MOLECULE
BindingDB_15196
 51 53 0 0 0
SMALL
NO_CHARGES


@<TRIPOS>ATOM
1    C        44.5603   34.1740  111.1931  C     
2    C        43.1610   34.1705  110.9919  C     
3    C        42.4072   35.3489  111.1114  C     
4    C        43.0389   36.5599  111.4275  C     
5    C        45.2094   35.3934  111.5473  C     
6    C        44.4312   36.5903  111.6454  C     
7    C        46.5878   35.5078  111.8225  C     
8    C        45.0877   37.7803  111.9754  C     
9    C        47.1154   36.7069  112.1382  C     
10   N        46.3595   37.7737  112.1977  N     
11   S        45.4002   32.6451  111.0447  S     
12   O        44.5721   31.5722  110.2106  O     
13   O        46.7592   32.7614  110.2274  O     
14   N        45.7471   32.0364  112.5788  N     
15   C        44.9884   31.0200  113.2247  C     
16   C        43.4515   31.2214  113.1441  C     
17   N        42.6327   30.2457  113.9054  N     
18   C        42.7895   28.7948  113.6425  C     
19   C        42.4147   28.3269  112.2113  C     
20   O        43.3771   27.3492  111.7663  O     
21   C        43.0980   26.6570  110.5324  C     
22   C        42.9275   27.5327  109.3402  C     
23   C        43.7595   29.3187  107.8827  C     
24   C        43.9177   28.4836  109.0049  C     
25   C        41.7796   27.4352  108.5198  C     
26   C        41.6284   28.2583  107.3859  C     
27   C        42.6214   29.2023  107.0679  C     
28   Cl       40.2523   28.1169  106.4104  Cl    
29   H        42.6671   33.3060  110.7599  H     
30   H        41.3951   35.3253  110.9668  H     
31   H        42.4763   37.4123  111.5029  H     
32   H        47.1875   34.7200  111.8131  H     
33   H        44.5955   38.6388  112.0455  H     
34   H        48.0843   36.7927  112.3379  H     
35   H        46.5301   32.3844  113.0377  H     
36   H        45.2657   30.0596  112.7852  H     
37   H        45.2819   31.0118  114.2762  H     
38   H        43.2118   32.2124  113.5373  H     
39   H        43.1302   31.2038  112.1036  H     
40   H        42.8343   30.3877  114.8976  H     
41   H        41.6549   30.4892  113.7401  H     
42   H        43.8149   28.5116  113.8790  H     
43   H        42.1540   28.2644  114.3561  H     
44   H        41.4057   27.9043  112.2205  H     
45   H        42.4226   29.1716  111.5226  H     
46   H        43.9505   26.0031  110.3403  H     
47   H        42.2302   26.0092  110.6844  H     
48   H        44.4718   30.0166  107.6580  H     
49   H        44.7547   28.5840  109.5848  H     
50   H        41.0496   26.7536  108.7410  H     
51   H        42.5204   29.8090  106.2500  H     
@<TRIPOS>BOND
     1    1    2 1
     2    1    5 2
     3    1   11 1
     4    2    3 2
     5    3    4 1
     6    4    6 2
     7    5    6 1
     8    5    7 1
     9    6    8 1
    10    7    9 2
    11    8   10 2
    12    9   10 1
    13   11   12 2
    14   11   13 2
    15   11   14 1
    16   14   15 1
    17   15   16 1
    18   16   17 1
    19   17   18 1
    20   18   19 1
    21   19   20 1
    22   20   21 1
    23   21   22 1
    24   22   24 1
    25   22   25 2
    26   23   24 2
    27   23   27 1
    28   25   26 1
    29   26   27 2
    30   26   28 1
    31    2   29 1
    32    3   30 1
    33    4   31 1
    34    7   32 1
    35    8   33 1
    36    9   34 1
    37   14   35 1
    38   15   36 1
    39   15   37 1
    40   16   38 1
    41   16   39 1
    42   17   40 1
    43   17   41 1
    44   18   42 1
    45   18   43 1
    46   19   44 1
    47   19   45 1
    48   21   46 1
    49   21   47 1
    50   23   48 1
    51   24   49 1
    52   25   50 1
    53   27   51 1
@<TRIPOS>PROPERTY_DATA
  Total_Score	| 12.0106
  Crash		| -0.9299
  Polar		| 4.9620
  FragIndex	| 1
  FragRMSD	| 0.407

