@<TRIPOS>MOLECULE
BindingDB_15192
 54 56 0 0 0
SMALL
NO_CHARGES


@<TRIPOS>ATOM
1    C        44.4977   34.1212  111.2062  C     
2    C        43.0945   34.0779  111.0246  C     
3    C        42.3181   35.2392  111.1528  C     
4    C        42.9252   36.4692  111.4476  C     
5    C        45.1230   35.3547  111.5414  C     
6    C        44.3208   36.5356  111.6346  C     
7    C        46.5005   35.5007  111.8002  C     
8    C        44.9585   37.7461  111.9313  C     
9    C        47.0107   36.7149  112.0881  C     
10   N        46.2332   37.7678  112.1330  N     
11   S        45.3728   32.6226  111.0257  S     
12   O        44.6399   31.5358  110.1128  O     
13   O        46.7356   32.8393  110.2366  O     
14   N        45.7821   31.9682  112.5316  N     
15   C        44.9857   31.0276  113.2395  C     
16   C        43.4742   31.3321  113.2757  C     
17   N        42.6625   30.3609  114.0447  N     
18   C        42.7030   28.9233  113.6589  C     
19   C        42.4678   28.5757  112.1631  C     
20   O        43.3383   27.4849  111.7698  O     
21   C        42.9744   26.7363  110.5854  C     
22   C        42.7552   27.5482  109.3458  C     
23   C        43.6434   29.2775  107.8379  C     
24   C        43.7834   28.4499  108.9649  C     
25   C        41.5712   27.4808  108.5478  C     
26   C        41.4740   28.2924  107.3897  C     
27   C        42.4935   29.1906  107.0445  C     
28   C        40.4237   26.6090  108.9030  C     
29   H        42.6189   33.2027  110.8064  H     
30   H        41.3020   35.1949  111.0270  H     
31   H        42.3457   37.3128  111.5222  H     
32   H        47.1162   34.7279  111.8030  H     
33   H        44.4539   38.5970  111.9837  H     
34   H        47.9812   36.8238  112.2735  H     
35   H        46.6969   32.0872  112.8268  H     
36   H        45.1668   30.0463  112.8112  H     
37   H        45.3467   31.0122  114.2767  H     
38   H        43.3096   32.3079  113.7255  H     
39   H        43.0364   31.3505  112.2709  H     
40   H        42.9440   30.4146  115.0314  H     
41   H        41.6900   30.6829  113.9897  H     
42   H        43.6481   28.4921  114.0174  H     
43   H        41.9056   28.4329  114.2493  H     
44   H        41.4081   28.3162  112.0175  H     
45   H        42.7225   29.4398  111.5378  H     
46   H        43.7927   26.0400  110.3827  H     
47   H        42.1064   26.1248  110.8439  H     
48   H        44.3784   29.9509  107.5993  H     
49   H        44.6423   28.5219  109.5226  H     
50   H        40.6445   28.2510  106.7941  H     
51   H        42.3966   29.7838  106.2182  H     
52   H        40.7465   25.5648  108.9443  H     
53   H        39.6066   26.6732  108.1814  H     
54   H        40.0306   26.9013  109.8780  H     
@<TRIPOS>BOND
     1    1    2 1
     2    1    5 2
     3    1   11 1
     4    2    3 2
     5    3    4 1
     6    4    6 2
     7    5    6 1
     8    5    7 1
     9    6    8 1
    10    7    9 2
    11    8   10 2
    12    9   10 1
    13   11   12 2
    14   11   13 2
    15   11   14 1
    16   14   15 1
    17   15   16 1
    18   16   17 1
    19   17   18 1
    20   18   19 1
    21   19   20 1
    22   20   21 1
    23   21   22 1
    24   22   24 1
    25   22   25 2
    26   23   24 2
    27   23   27 1
    28   25   26 1
    29   25   28 1
    30   26   27 2
    31    2   29 1
    32    3   30 1
    33    4   31 1
    34    7   32 1
    35    8   33 1
    36    9   34 1
    37   14   35 1
    38   15   36 1
    39   15   37 1
    40   16   38 1
    41   16   39 1
    42   17   40 1
    43   17   41 1
    44   18   42 1
    45   18   43 1
    46   19   44 1
    47   19   45 1
    48   21   46 1
    49   21   47 1
    50   23   48 1
    51   24   49 1
    52   26   50 1
    53   27   51 1
    54   28   52 1
    55   28   53 1
    56   28   54 1
@<TRIPOS>PROPERTY_DATA
  Total_Score	| 11.4367
  Crash		| -0.8374
  Polar		| 4.8444
  FragIndex	| 1
  FragRMSD	| 0.461

