@<TRIPOS>MOLECULE
BindingDB_15201
 55 57 0 0 0
SMALL
NO_CHARGES


@<TRIPOS>ATOM
1    C        44.4927   34.1956  111.2087  C     
2    C        43.0922   34.2012  111.0103  C     
3    C        42.3504   35.3863  111.0988  C     
4    C        42.9893   36.5981  111.3887  C     
5    C        45.1513   35.4190  111.5420  C     
6    C        44.3828   36.6227  111.6039  C     
7    C        46.5303   35.5306  111.8196  C     
8    C        45.0528   37.8146  111.9046  C     
9    C        47.0654   36.7344  112.1036  C     
10   N        46.3219   37.8128  112.1303  N     
11   S        45.3118   32.6495  111.1030  S     
12   O        44.5624   31.6260  110.1409  O     
13   O        46.7196   32.7723  110.3733  O     
14   N        45.5707   31.9845  112.6310  N     
15   C        44.5085   31.5428  113.4805  C     
16   C        43.8741   30.2155  112.9498  C     
17   N        42.6838   29.8070  113.7255  N     
18   C        42.2840   28.3830  113.6014  C     
19   C        42.1822   27.8263  112.1385  C     
20   O        43.3855   27.1408  111.7445  O     
21   C        44.0825   27.4445  110.5173  C     
22   C        43.2315   27.7869  109.3608  C     
23   C        42.8541   29.0466  107.2787  C     
24   C        43.6616   28.7130  108.3812  C     
25   C        41.1604   27.4685  108.0417  C     
26   C        41.5909   28.4363  107.0992  C     
27   C        41.9952   27.1198  109.1457  C     
28   O        40.8740   28.8251  105.9789  O     
29   C        39.4674   28.5110  105.9668  C     
30   H        42.5952   33.3316  110.8010  H     
31   H        41.3385   35.3694  110.9592  H     
32   H        42.4369   37.4581  111.4474  H     
33   H        47.1251   34.7262  111.8468  H     
34   H        44.5687   38.6748  111.9492  H     
35   H        48.0330   36.8066  112.3069  H     
36   H        46.4660   32.0699  113.0242  H     
37   H        44.9320   31.3477  114.4684  H     
38   H        43.7372   32.3265  113.5639  H     
39   H        43.5512   30.3644  111.9093  H     
40   H        44.6714   29.4399  112.9816  H     
41   H        42.8572   29.9817  114.7240  H     
42   H        41.8902   30.3938  113.4191  H     
43   H        42.9760   27.7662  114.1951  H     
44   H        41.3042   28.3140  114.0738  H     
45   H        41.3931   27.0679  112.1192  H     
46   H        41.8751   28.6201  111.4543  H     
47   H        44.8040   28.2475  110.7005  H     
48   H        44.6418   26.5482  110.2372  H     
49   H        43.1968   29.7243  106.5819  H     
50   H        44.5565   29.1932  108.4903  H     
51   H        40.2753   26.9714  107.9168  H     
52   H        41.6434   26.4318  109.8156  H     
53   H        39.3252   27.4374  105.8076  H     
54   H        38.9990   29.0403  105.1195  H     
55   H        38.9620   28.8271  106.8899  H     
@<TRIPOS>BOND
     1    1    2 1
     2    1    5 2
     3    1   11 1
     4    2    3 2
     5    3    4 1
     6    4    6 2
     7    5    6 1
     8    5    7 1
     9    6    8 1
    10    7    9 2
    11    8   10 2
    12    9   10 1
    13   11   12 2
    14   11   13 2
    15   11   14 1
    16   14   15 1
    17   15   16 1
    18   16   17 1
    19   17   18 1
    20   18   19 1
    21   19   20 1
    22   20   21 1
    23   21   22 1
    24   22   24 1
    25   22   27 2
    26   23   24 2
    27   23   26 1
    28   25   26 2
    29   25   27 1
    30   26   28 1
    31   28   29 1
    32    2   30 1
    33    3   31 1
    34    4   32 1
    35    7   33 1
    36    8   34 1
    37    9   35 1
    38   14   36 1
    39   15   37 1
    40   15   38 1
    41   16   39 1
    42   16   40 1
    43   17   41 1
    44   17   42 1
    45   18   43 1
    46   18   44 1
    47   19   45 1
    48   19   46 1
    49   21   47 1
    50   21   48 1
    51   23   49 1
    52   24   50 1
    53   25   51 1
    54   27   52 1
    55   29   53 1
    56   29   54 1
    57   29   55 1
@<TRIPOS>PROPERTY_DATA
  Total_Score	| 12.2051
  Crash		| -1.0757
  Polar		| 5.0603
  FragIndex	| 1
  FragRMSD	| 0.448

