@<TRIPOS>MOLECULE
BindingDB_15199
 55 57 0 0 0
SMALL
NO_CHARGES


@<TRIPOS>ATOM
1    C        44.5207   34.2025  111.1783  C     
2    C        43.1179   34.2060  110.9943  C     
3    C        42.3771   35.3865  111.1176  C     
4    C        43.0212   36.5988  111.4102  C     
5    C        45.1814   35.4123  111.5389  C     
6    C        44.4159   36.6203  111.6242  C     
7    C        46.5551   35.5119  111.8480  C     
8    C        45.0846   37.8071  111.9414  C     
9    C        47.0921   36.7075  112.1612  C     
10   N        46.3573   37.7857  112.1842  N     
11   S        45.3218   32.6497  111.0067  S     
12   O        44.5057   31.6313  110.0987  O     
13   O        46.7339   32.7839  110.2807  O     
14   N        45.5721   31.9394  112.5204  N     
15   C        44.4944   31.4948  113.3407  C     
16   C        43.9093   30.1374  112.8768  C     
17   N        42.7566   29.7949  113.7365  N     
18   C        42.2715   28.3977  113.7046  C     
19   C        42.0062   27.8155  112.2950  C     
20   O        43.2364   27.2375  111.7967  O     
21   C        43.1730   26.6021  110.5068  C     
22   C        42.9292   27.5275  109.3556  C     
23   C        43.8136   29.2916  107.9115  C     
24   C        43.9225   28.4874  109.0638  C     
25   C        41.7202   28.1879  107.3304  C     
26   C        42.7225   29.1337  107.0475  C     
27   C        41.7903   27.4059  108.5100  C     
28   O        40.8108   26.4887  108.8852  O     
29   C        39.6159   26.3617  108.1068  C     
30   H        42.6257   33.3355  110.7853  H     
31   H        41.3684   35.3637  110.9925  H     
32   H        42.4665   37.4533  111.4763  H     
33   H        47.1452   34.7214  111.8916  H     
34   H        44.5915   38.6723  111.9936  H     
35   H        48.0471   36.7790  112.4074  H     
36   H        46.4841   31.7597  112.8111  H     
37   H        44.8797   31.3857  114.3681  H     
38   H        43.6943   32.2425  113.3667  H     
39   H        43.5712   30.2325  111.8382  H     
40   H        44.6840   29.3588  112.9290  H     
41   H        43.0171   29.9917  114.7042  H     
42   H        41.9681   30.4091  113.4832  H     
43   H        42.9752   27.7631  114.2406  H     
44   H        41.3389   28.4001  114.2677  H     
45   H        41.2554   27.0269  112.3898  H     
46   H        41.6246   28.5966  111.6243  H     
47   H        44.1539   26.1512  110.3568  H     
48   H        42.4653   25.7644  110.5580  H     
49   H        44.5287   29.9852  107.6978  H     
50   H        44.7421   28.5858  109.6567  H     
51   H        40.9341   28.1205  106.6733  H     
52   H        42.6510   29.6998  106.1931  H     
53   H        39.0367   27.2752  108.1313  H     
54   H        38.9862   25.5466  108.5250  H     
55   H        39.8684   26.0879  107.0902  H     
@<TRIPOS>BOND
     1    1    2 1
     2    1    5 2
     3    1   11 1
     4    2    3 2
     5    3    4 1
     6    4    6 2
     7    5    6 1
     8    5    7 1
     9    6    8 1
    10    7    9 2
    11    8   10 2
    12    9   10 1
    13   11   12 2
    14   11   13 2
    15   11   14 1
    16   14   15 1
    17   15   16 1
    18   16   17 1
    19   17   18 1
    20   18   19 1
    21   19   20 1
    22   20   21 1
    23   21   22 1
    24   22   24 1
    25   22   27 2
    26   23   24 2
    27   23   26 1
    28   25   26 2
    29   25   27 1
    30   27   28 1
    31   28   29 1
    32    2   30 1
    33    3   31 1
    34    4   32 1
    35    7   33 1
    36    8   34 1
    37    9   35 1
    38   14   36 1
    39   15   37 1
    40   15   38 1
    41   16   39 1
    42   16   40 1
    43   17   41 1
    44   17   42 1
    45   18   43 1
    46   18   44 1
    47   19   45 1
    48   19   46 1
    49   21   47 1
    50   21   48 1
    51   23   49 1
    52   24   50 1
    53   25   51 1
    54   26   52 1
    55   29   53 1
    56   29   54 1
    57   29   55 1
@<TRIPOS>PROPERTY_DATA
  Total_Score	| 11.7555
  Crash		| -1.0303
  Polar		| 5.0605
  FragIndex	| 1
  FragRMSD	| 0.214

