@<TRIPOS>MOLECULE
BindingDB_15194
 54 56 0 0 0
SMALL
NO_CHARGES


@<TRIPOS>ATOM
1    C        44.5457   34.1775  111.2357  C     
2    C        43.1461   34.1778  111.0245  C     
3    C        42.3976   35.3584  111.1033  C     
4    C        43.0256   36.5752  111.4171  C     
5    C        45.2032   35.4087  111.5662  C     
6    C        44.4226   36.6089  111.6527  C     
7    C        46.5786   35.5441  111.8261  C     
8    C        45.0768   37.8083  111.9818  C     
9    C        47.1046   36.7542  112.1195  C     
10   N        46.3535   37.8203  112.1930  N     
11   S        45.3556   32.6334  111.0887  S     
12   O        44.4525   31.6400  110.2214  O     
13   O        46.7354   32.6468  110.2917  O     
14   N        45.6123   31.9462  112.6140  N     
15   C        44.9914   30.7489  113.0714  C     
16   C        43.4846   30.6534  112.7189  C     
17   N        42.6409   29.9864  113.7379  N     
18   C        42.4957   28.5036  113.7435  C     
19   C        42.1120   27.8531  112.3876  C     
20   O        43.2292   27.1264  111.8528  O     
21   C        42.9828   26.3804  110.6394  C     
22   C        42.6608   27.3008  109.5194  C     
23   C        41.0500   28.3742  108.0258  C     
24   C        41.3370   27.4560  109.0509  C     
25   C        43.6835   28.0684  108.9273  C     
26   C        43.3994   28.9600  107.8785  C     
27   C        42.0740   29.1342  107.4233  C     
28   C        41.7483   30.1163  106.3646  C     
29   H        42.6477   33.3070  110.8061  H     
30   H        41.3794   35.3287  110.9369  H     
31   H        42.4493   37.4319  111.4731  H     
32   H        47.1874   34.7619  111.8188  H     
33   H        44.5720   38.6613  112.0673  H     
34   H        48.0763   36.8424  112.2971  H     
35   H        46.0158   32.5263  113.2921  H     
36   H        45.5287   29.8822  112.6621  H     
37   H        45.1297   30.7147  114.1616  H     
38   H        43.0639   31.6565  112.6153  H     
39   H        43.3628   30.1634  111.7456  H     
40   H        42.9918   30.2414  114.6727  H     
41   H        41.7080   30.3871  113.6482  H     
42   H        43.4099   28.0529  114.1465  H     
43   H        41.7060   28.2830  114.4676  H     
44   H        41.2928   27.1446  112.5600  H     
45   H        41.7527   28.6230  111.7022  H     
46   H        43.8927   25.8313  110.3830  H     
47   H        42.2005   25.6315  110.7903  H     
48   H        40.0791   28.4837  107.7194  H     
49   H        40.5740   26.9253  109.4710  H     
50   H        44.6486   27.9887  109.2684  H     
51   H        44.1700   29.5045  107.4667  H     
52   H        41.0594   29.6769  105.6425  H     
53   H        42.6399   30.4452  105.8254  H     
54   H        41.2743   30.9879  106.8190  H     
@<TRIPOS>BOND
     1    1    2 1
     2    1    5 2
     3    1   11 1
     4    2    3 2
     5    3    4 1
     6    4    6 2
     7    5    6 1
     8    5    7 1
     9    6    8 1
    10    7    9 2
    11    8   10 2
    12    9   10 1
    13   11   12 2
    14   11   13 2
    15   11   14 1
    16   14   15 1
    17   15   16 1
    18   16   17 1
    19   17   18 1
    20   18   19 1
    21   19   20 1
    22   20   21 1
    23   21   22 1
    24   22   24 1
    25   22   25 2
    26   23   24 2
    27   23   27 1
    28   25   26 1
    29   26   27 2
    30   27   28 1
    31    2   29 1
    32    3   30 1
    33    4   31 1
    34    7   32 1
    35    8   33 1
    36    9   34 1
    37   14   35 1
    38   15   36 1
    39   15   37 1
    40   16   38 1
    41   16   39 1
    42   17   40 1
    43   17   41 1
    44   18   42 1
    45   18   43 1
    46   19   44 1
    47   19   45 1
    48   21   46 1
    49   21   47 1
    50   23   48 1
    51   24   49 1
    52   25   50 1
    53   26   51 1
    54   28   52 1
    55   28   53 1
    56   28   54 1
@<TRIPOS>PROPERTY_DATA
  Total_Score	| 11.0359
  Crash		| -1.1769
  Polar		| 4.9815
  FragIndex	| 1
  FragRMSD	| 0.359

