@<TRIPOS>MOLECULE
BindingDB_15215
 52 55 0 0 0
SMALL
NO_CHARGES


@<TRIPOS>ATOM
1    C        44.5129   34.1057  111.2802  C     
2    C        43.1194   34.1399  111.0340  C     
3    C        42.3948   35.3405  111.0877  C     
4    C        43.0497   36.5413  111.3897  C     
5    C        45.1919   35.3245  111.5770  C     
6    C        44.4380   36.5410  111.6345  C     
7    C        46.5760   35.4288  111.8176  C     
8    C        45.1142   37.7256  111.9393  C     
9    C        47.1280   36.6272  112.0890  C     
10   N        46.3878   37.7025  112.1469  N     
11   S        45.2466   32.5140  111.2245  S     
12   O        44.7274   31.7867  109.9075  O     
13   O        46.8129   32.4227  110.9623  O     
14   N        44.8787   31.5556  112.5683  N     
15   C        43.5972   30.9522  112.7659  C     
16   C        43.2973   30.4817  114.2062  C     
17   C        43.4466   29.6338  112.0012  C     
18   C        42.2447   28.9621  112.6674  C     
19   N        42.4902   29.2407  114.0990  N     
20   C        42.0351   27.4639  112.2870  C     
21   O        43.1824   26.6639  111.8999  O     
22   C        43.5779   26.3419  110.5374  C     
23   C        43.1435   27.2517  109.4449  C     
24   C        41.9052   27.0556  108.7946  C     
25   C        43.9681   28.3227  109.0218  C     
26   C        43.5383   29.2106  108.0204  C     
27   C        42.2771   29.0377  107.4235  C     
28   C        41.4634   27.9558  107.8069  C     
29   Cl       41.7330   30.1312  106.2560  Cl    
30   H        42.6054   33.2848  110.8068  H     
31   H        41.3879   35.3390  110.9075  H     
32   H        42.5087   37.4111  111.4217  H     
33   H        47.1713   34.6432  111.7918  H     
34   H        44.6351   38.5909  112.0084  H     
35   H        48.1044   36.7082  112.2482  H     
36   H        45.6076   31.2979  113.1589  H     
37   H        42.8108   31.6495  112.4587  H     
38   H        44.2269   30.2475  114.7328  H     
39   H        42.7533   31.2466  114.7671  H     
40   H        43.2687   29.7955  110.9407  H     
41   H        44.3318   29.0118  112.1701  H     
42   H        41.3364   29.5105  112.3892  H     
43   H        43.0218   28.4675  114.5059  H     
44   H        41.6005   29.3395  114.6006  H     
45   H        41.6060   26.9614  113.1561  H     
46   H        41.2753   27.4007  111.5071  H     
47   H        44.6700   26.2316  110.5084  H     
48   H        43.1668   25.3534  110.3302  H     
49   H        41.3063   26.2680  109.0528  H     
50   H        44.8870   28.4723  109.4467  H     
51   H        44.1412   29.9878  107.7402  H     
52   H        40.5497   27.8158  107.3688  H     
@<TRIPOS>BOND
     1    1    2 1
     2    1    5 2
     3    1   11 1
     4    2    3 2
     5    3    4 1
     6    4    6 2
     7    5    6 1
     8    5    7 1
     9    6    8 1
    10    7    9 2
    11    8   10 2
    12    9   10 1
    13   11   12 2
    14   11   13 2
    15   11   14 1
    16   15   14 1
    17   15   16 1
    18   15   17 1
    19   16   19 1
    20   17   18 1
    21   18   19 1
    22   18   20 1
    23   20   21 1
    24   21   22 1
    25   22   23 1
    26   23   24 1
    27   23   25 2
    28   24   28 2
    29   25   26 1
    30   26   27 2
    31   27   28 1
    32   27   29 1
    33    2   30 1
    34    3   31 1
    35    4   32 1
    36    7   33 1
    37    8   34 1
    38    9   35 1
    39   14   36 1
    40   15   37 1
    41   16   38 1
    42   16   39 1
    43   17   40 1
    44   17   41 1
    45   18   42 1
    46   19   43 1
    47   19   44 1
    48   20   45 1
    49   20   46 1
    50   22   47 1
    51   22   48 1
    52   24   49 1
    53   25   50 1
    54   26   51 1
    55   28   52 1
@<TRIPOS>PROPERTY_DATA
  Total_Score	| 9.3726
  Crash		| -1.3456
  Polar		| 3.6321
  FragIndex	| 1
  FragRMSD	| 0.501

