@<TRIPOS>MOLECULE
BindingDB_15214
 52 55 0 0 0
SMALL
NO_CHARGES


@<TRIPOS>ATOM
1    C        44.4826   34.2508  111.1403  C     
2    C        43.0822   34.2777  110.9458  C     
3    C        42.3502   35.4652  111.0993  C     
4    C        43.0061   36.6583  111.4329  C     
5    C        45.1576   35.4522  111.5045  C     
6    C        44.4013   36.6601  111.6339  C     
7    C        46.5430   35.5388  111.7540  C     
8    C        45.0827   37.8330  111.9731  C     
9    C        47.0958   36.7240  112.0784  C     
10   N        46.3582   37.8010  112.1714  N     
11   S        45.2918   32.7096  110.9532  S     
12   O        44.4502   31.6793  110.0830  O     
13   O        46.6199   32.8651  110.0917  O     
14   N        45.7499   32.0463  112.4359  N     
15   C        45.0102   31.0806  113.1907  C     
16   C        43.6615   31.5727  113.7654  C     
17   C        44.6689   29.7781  112.4251  C     
18   C        43.1286   29.6890  112.4263  C     
19   N        42.7627   30.4203  113.6546  N     
20   C        42.4951   28.2679  112.4019  C     
21   O        43.3184   27.1578  111.9975  O     
22   C        43.3578   26.6041  110.6709  C     
23   C        42.9643   27.4901  109.5462  C     
24   C        41.6999   27.3470  108.9322  C     
25   C        43.8601   28.4629  109.0452  C     
26   C        43.5011   29.2769  107.9570  C     
27   C        42.2319   29.1391  107.3660  C     
28   C        41.3318   28.1731  107.8540  C     
29   Cl       41.7857   30.1458  106.0851  Cl    
30   H        42.5703   33.4268  110.7017  H     
31   H        41.3362   35.4614  110.9654  H     
32   H        42.4594   37.5190  111.5298  H     
33   H        47.1306   34.7426  111.7123  H     
34   H        44.6060   38.6976  112.0679  H     
35   H        48.0704   36.7937  112.2547  H     
36   H        46.5327   32.4337  112.8610  H     
37   H        45.6487   30.8165  114.0392  H     
38   H        43.7554   31.8778  114.8102  H     
39   H        43.2401   32.4020  113.2009  H     
40   H        45.0649   29.7892  111.4092  H     
41   H        45.0889   28.9189  112.9451  H     
42   H        42.7432   30.2435  111.5652  H     
43   H        42.9158   29.8274  114.4762  H     
44   H        41.7890   30.7228  113.6220  H     
45   H        42.1670   28.0175  113.4125  H     
46   H        41.5985   28.2888  111.7783  H     
47   H        44.3546   26.1884  110.5198  H     
48   H        42.6742   25.7533  110.6737  H     
49   H        41.0375   26.6441  109.2707  H     
50   H        44.7827   28.5866  109.4676  H     
51   H        44.1656   29.9700  107.6035  H     
52   H        40.4086   28.0655  107.4281  H     
@<TRIPOS>BOND
     1    1    2 1
     2    1    5 2
     3    1   11 1
     4    2    3 2
     5    3    4 1
     6    4    6 2
     7    5    6 1
     8    5    7 1
     9    6    8 1
    10    7    9 2
    11    8   10 2
    12    9   10 1
    13   11   12 2
    14   11   13 2
    15   11   14 1
    16   15   14 1
    17   15   16 1
    18   15   17 1
    19   16   19 1
    20   17   18 1
    21   18   19 1
    22   18   20 1
    23   20   21 1
    24   21   22 1
    25   22   23 1
    26   23   24 1
    27   23   25 2
    28   24   28 2
    29   25   26 1
    30   26   27 2
    31   27   28 1
    32   27   29 1
    33    2   30 1
    34    3   31 1
    35    4   32 1
    36    7   33 1
    37    8   34 1
    38    9   35 1
    39   14   36 1
    40   15   37 1
    41   16   38 1
    42   16   39 1
    43   17   40 1
    44   17   41 1
    45   18   42 1
    46   19   43 1
    47   19   44 1
    48   20   45 1
    49   20   46 1
    50   22   47 1
    51   22   48 1
    52   24   49 1
    53   25   50 1
    54   26   51 1
    55   28   52 1
@<TRIPOS>PROPERTY_DATA
  Total_Score	| 10.4574
  Crash		| -1.5391
  Polar		| 4.5783
  FragIndex	| 1
  FragRMSD	| 0.575

