@<TRIPOS>MOLECULE
BindingDB_15195
 51 53 0 0 0
SMALL
NO_CHARGES


@<TRIPOS>ATOM
1    C        44.5513   34.1557  111.1599  C     
2    C        43.1526   34.1627  110.9662  C     
3    C        42.4055   35.3444  111.1054  C     
4    C        43.0464   36.5460  111.4418  C     
5    C        45.2113   35.3679  111.5224  C     
6    C        44.4396   36.5644  111.6540  C     
7    C        46.5931   35.4762  111.7811  C     
8    C        45.0981   37.7442  112.0063  C     
9    C        47.1281   36.6696  112.0973  C     
10   N        46.3755   37.7360  112.2029  N     
11   S        45.3656   32.6122  111.0156  S     
12   O        44.5695   31.5862  110.0947  O     
13   O        46.7740   32.7669  110.2887  O     
14   N        45.6448   31.9542  112.5409  N     
15   C        44.5913   31.5770  113.4277  C     
16   C        43.8622   30.3025  112.9240  C     
17   N        42.7577   29.8777  113.8080  N     
18   C        42.3765   28.4382  113.7423  C     
19   C        42.0799   27.8638  112.3301  C     
20   O        43.2855   27.2794  111.7972  O     
21   C        43.1989   26.5890  110.5327  C     
22   C        42.8930   27.4843  109.3746  C     
23   C        43.7025   29.2065  107.8114  C     
24   C        43.8837   28.4092  108.9574  C     
25   C        41.6818   27.4125  108.6273  C     
26   C        41.4954   28.2355  107.4900  C     
27   C        42.5109   29.1188  107.0763  C     
28   Cl       40.4139   26.3589  109.0421  Cl    
29   H        42.6515   33.3013  110.7330  H     
30   H        41.3949   35.3305  110.9641  H     
31   H        42.4888   37.3984  111.5379  H     
32   H        47.1933   34.6907  111.7516  H     
33   H        44.6034   38.5968  112.1228  H     
34   H        48.1007   36.7530  112.2738  H     
35   H        46.5397   31.6281  112.7309  H     
36   H        45.0448   31.3681  114.4008  H     
37   H        43.8873   32.4026  113.5581  H     
38   H        43.4329   30.5063  111.9414  H     
39   H        44.6046   29.5089  112.8199  H     
40   H        43.0441   30.0628  114.7700  H     
41   H        41.9284   30.4515  113.6064  H     
42   H        43.1898   27.8556  114.1905  H     
43   H        41.5074   28.2933  114.3797  H     
44   H        41.2990   27.1014  112.4125  H     
45   H        41.7219   28.6652  111.6709  H     
46   H        44.1795   26.1344  110.3703  H     
47   H        42.4964   25.7557  110.5800  H     
48   H        44.4477   29.8476  107.5104  H     
49   H        44.7593   28.4957  109.4773  H     
50   H        40.6246   28.1879  106.9511  H     
51   H        42.3758   29.7036  106.2492  H     
@<TRIPOS>BOND
     1    1    2 1
     2    1    5 2
     3    1   11 1
     4    2    3 2
     5    3    4 1
     6    4    6 2
     7    5    6 1
     8    5    7 1
     9    6    8 1
    10    7    9 2
    11    8   10 2
    12    9   10 1
    13   11   12 2
    14   11   13 2
    15   11   14 1
    16   14   15 1
    17   15   16 1
    18   16   17 1
    19   17   18 1
    20   18   19 1
    21   19   20 1
    22   20   21 1
    23   21   22 1
    24   22   24 1
    25   22   25 2
    26   23   24 2
    27   23   27 1
    28   25   26 1
    29   25   28 1
    30   26   27 2
    31    2   29 1
    32    3   30 1
    33    4   31 1
    34    7   32 1
    35    8   33 1
    36    9   34 1
    37   14   35 1
    38   15   36 1
    39   15   37 1
    40   16   38 1
    41   16   39 1
    42   17   40 1
    43   17   41 1
    44   18   42 1
    45   18   43 1
    46   19   44 1
    47   19   45 1
    48   21   46 1
    49   21   47 1
    50   23   48 1
    51   24   49 1
    52   26   50 1
    53   27   51 1
@<TRIPOS>PROPERTY_DATA
  Total_Score	| 11.3030
  Crash		| -1.0314
  Polar		| 5.1167
  FragIndex	| 1
  FragRMSD	| 0.191

