@<TRIPOS>MOLECULE
BindingDB_15198
 51 53 0 0 0
SMALL
NO_CHARGES


@<TRIPOS>ATOM
1    C        44.7637   34.0366  111.2934  C     
2    C        43.3862   33.9102  111.0102  C     
3    C        42.5335   35.0334  111.0296  C     
4    C        43.0464   36.3048  111.3299  C     
5    C        45.3087   35.3307  111.5489  C     
6    C        44.4235   36.4604  111.5894  C     
7    C        46.6781   35.5841  111.7893  C     
8    C        44.9761   37.7059  111.9210  C     
9    C        47.0960   36.8337  112.1102  C     
10   N        46.2404   37.8156  112.1739  N     
11   S        45.7059   32.5552  111.3163  S     
12   O        46.5089   32.4076  109.9441  O     
13   O        46.8583   32.6034  112.4131  O     
14   N        44.8801   31.1163  111.6119  N     
15   C        44.6019   30.6080  112.9206  C     
16   C        43.0962   30.6996  113.2614  C     
17   N        42.2706   29.6620  112.5805  N     
18   C        42.1317   28.3477  113.2695  C     
19   C        42.0084   27.2101  112.2234  C     
20   O        43.3348   26.8947  111.7307  O     
21   C        43.4068   26.2507  110.4417  C     
22   C        43.0255   27.1826  109.3423  C     
23   C        43.4813   29.1897  108.0166  C     
24   C        43.8582   28.2743  109.0152  C     
25   C        41.7967   27.0423  108.6576  C     
26   C        41.4029   27.9604  107.6637  C     
27   C        42.2455   29.0494  107.3511  C     
28   Cl       41.8188   30.2208  106.1941  Cl    
29   Cl       39.9214   27.7242  106.8769  Cl    
30   H        42.9802   33.0031  110.7821  H     
31   H        41.5382   34.9184  110.8450  H     
32   H        42.4058   37.1067  111.3601  H     
33   H        47.3660   34.8809  111.6727  H     
34   H        44.4100   38.5249  111.9692  H     
35   H        48.0581   37.0131  112.2834  H     
36   H        44.5635   30.6025  110.8537  H     
37   H        44.9232   29.5665  112.9797  H     
38   H        45.1574   31.1522  113.6854  H     
39   H        42.9655   30.6369  114.3509  H     
40   H        42.7333   31.6847  112.9547  H     
41   H        41.3249   30.0493  112.4799  H     
42   H        42.6492   29.5043  111.6410  H     
43   H        42.9669   28.1219  113.9618  H     
44   H        41.2023   28.3685  113.8621  H     
45   H        41.6005   26.3110  112.6916  H     
46   H        41.3140   27.5258  111.4368  H     
47   H        44.4462   25.9461  110.2866  H     
48   H        42.7955   25.3328  110.4344  H     
49   H        44.1047   29.9766  107.8099  H     
50   H        44.7456   28.4073  109.4988  H     
51   H        41.1692   26.2714  108.9012  H     
@<TRIPOS>BOND
     1    1    2 1
     2    1    5 2
     3    1   11 1
     4    2    3 2
     5    3    4 1
     6    4    6 2
     7    5    6 1
     8    5    7 1
     9    6    8 1
    10    7    9 2
    11    8   10 2
    12    9   10 1
    13   11   12 2
    14   11   13 2
    15   11   14 1
    16   14   15 1
    17   15   16 1
    18   16   17 1
    19   17   18 1
    20   18   19 1
    21   19   20 1
    22   20   21 1
    23   21   22 1
    24   22   24 1
    25   22   25 2
    26   23   24 2
    27   23   27 1
    28   25   26 1
    29   26   27 2
    30   26   29 1
    31   27   28 1
    32    2   30 1
    33    3   31 1
    34    4   32 1
    35    7   33 1
    36    8   34 1
    37    9   35 1
    38   14   36 1
    39   15   37 1
    40   15   38 1
    41   16   39 1
    42   16   40 1
    43   17   41 1
    44   17   42 1
    45   18   43 1
    46   18   44 1
    47   19   45 1
    48   19   46 1
    49   21   47 1
    50   21   48 1
    51   23   49 1
    52   24   50 1
    53   25   51 1
@<TRIPOS>PROPERTY_DATA
  Total_Score	| 9.7868
  Crash		| -1.4191
  Polar		| 4.4702
  FragIndex	| 1
  FragRMSD	| 0.750

