@<TRIPOS>MOLECULE
BindingDB_15193
 54 56 0 0 0
SMALL
NO_CHARGES


@<TRIPOS>ATOM
1    C        44.5438   34.1416  111.1696  C     
2    C        43.1411   34.1035  110.9873  C     
3    C        42.3623   35.2640  111.1541  C     
4    C        42.9622   36.4807  111.5007  C     
5    C        45.1691   35.3729  111.5297  C     
6    C        44.3628   36.5453  111.6887  C     
7    C        46.5559   35.5241  111.7484  C     
8    C        44.9915   37.7437  112.0277  C     
9    C        47.0596   36.7283  112.0766  C     
10   N        46.2782   37.7724  112.1923  N     
11   S        45.4152   32.6320  111.0438  S     
12   O        44.5864   31.5348  110.2404  O     
13   O        46.7486   32.7835  110.1764  O     
14   N        45.7661   32.0470  112.5885  N     
15   C        44.9838   31.0688  113.2719  C     
16   C        43.4495   31.3150  113.1650  C     
17   N        42.6118   30.2851  113.8262  N     
18   C        42.7428   28.8647  113.4291  C     
19   C        42.9442   28.5836  111.9088  C     
20   O        42.7459   27.1834  111.6056  O     
21   C        43.3088   26.6915  110.3707  C     
22   C        43.0750   27.5770  109.1990  C     
23   C        43.7493   29.5005  107.8290  C     
24   C        43.9747   28.6271  108.9124  C     
25   C        41.9295   27.4230  108.3774  C     
26   C        41.7021   28.2764  107.2669  C     
27   C        42.6304   29.3101  106.9991  C     
28   C        40.5087   28.0850  106.4141  C     
29   H        42.6718   33.2225  110.7470  H     
30   H        41.3478   35.2118  111.0257  H     
31   H        42.3759   37.3175  111.6087  H     
32   H        47.1820   34.7547  111.6814  H     
33   H        44.4727   38.5843  112.1314  H     
34   H        48.0331   36.8446  112.2335  H     
35   H        46.6206   32.2928  112.9787  H     
36   H        45.2490   30.0930  112.8630  H     
37   H        45.2643   31.0736  114.3302  H     
38   H        43.2233   32.2766  113.6561  H     
39   H        43.1445   31.3832  112.1078  H     
40   H        42.7671   30.3316  114.8381  H     
41   H        41.6497   30.5529  113.6281  H     
42   H        43.5760   28.4206  113.9882  H     
43   H        41.8266   28.3695  113.7597  H     
44   H        42.2266   29.1681  111.3253  H     
45   H        43.9630   28.8941  111.6386  H     
46   H        44.3761   26.5254  110.5208  H     
47   H        42.8635   25.7139  110.1710  H     
48   H        44.4017   30.2619  107.6397  H     
49   H        44.7914   28.7870  109.5104  H     
50   H        41.2505   26.6898  108.5938  H     
51   H        42.4914   29.9454  106.2117  H     
52   H        40.5117   27.0776  105.9862  H     
53   H        40.4749   28.8054  105.5900  H     
54   H        39.6077   28.2196  107.0186  H     
@<TRIPOS>BOND
     1    1    2 1
     2    1    5 2
     3    1   11 1
     4    2    3 2
     5    3    4 1
     6    4    6 2
     7    5    6 1
     8    5    7 1
     9    6    8 1
    10    7    9 2
    11    8   10 2
    12    9   10 1
    13   11   12 2
    14   11   13 2
    15   11   14 1
    16   14   15 1
    17   15   16 1
    18   16   17 1
    19   17   18 1
    20   18   19 1
    21   19   20 1
    22   20   21 1
    23   21   22 1
    24   22   24 1
    25   22   25 2
    26   23   24 2
    27   23   27 1
    28   25   26 1
    29   26   27 2
    30   26   28 1
    31    2   29 1
    32    3   30 1
    33    4   31 1
    34    7   32 1
    35    8   33 1
    36    9   34 1
    37   14   35 1
    38   15   36 1
    39   15   37 1
    40   16   38 1
    41   16   39 1
    42   17   40 1
    43   17   41 1
    44   18   42 1
    45   18   43 1
    46   19   44 1
    47   19   45 1
    48   21   46 1
    49   21   47 1
    50   23   48 1
    51   24   49 1
    52   25   50 1
    53   27   51 1
    54   28   52 1
    55   28   53 1
    56   28   54 1
@<TRIPOS>PROPERTY_DATA
  Total_Score	| 12.1410
  Crash		| -1.1571
  Polar		| 3.8152
  FragIndex	| 1
  FragRMSD	| 0.496

