@<TRIPOS>MOLECULE
BindingDB_15200
 55 57 0 0 0
SMALL
NO_CHARGES


@<TRIPOS>ATOM
1    C        44.5494   34.1536  111.1828  C     
2    C        43.1439   34.1596  111.0096  C     
3    C        42.4013   35.3462  111.1109  C     
4    C        43.0480   36.5556  111.3947  C     
5    C        45.2113   35.3719  111.5184  C     
6    C        44.4432   36.5739  111.6078  C     
7    C        46.5920   35.4826  111.7920  C     
8    C        45.1111   37.7686  111.9202  C     
9    C        47.1291   36.6792  112.0992  C     
10   N        46.3823   37.7544  112.1508  N     
11   S        45.3504   32.6038  111.0164  S     
12   O        44.5413   31.6091  110.0739  O     
13   O        46.7509   32.7611  110.2813  O     
14   N        45.6201   31.8649  112.5096  N     
15   C        44.5533   31.4723  113.3671  C     
16   C        43.8296   30.2085  112.8552  C     
17   N        42.7038   29.8230  113.7400  N     
18   C        42.1903   28.4366  113.6326  C     
19   C        42.0276   27.8797  112.2025  C     
20   O        43.2545   27.2131  111.8419  O     
21   C        43.3754   26.6332  110.5223  C     
22   C        43.1122   27.5718  109.3939  C     
23   C        43.8231   29.3793  107.8885  C     
24   C        44.0475   28.5629  109.0182  C     
25   C        41.6543   28.2980  107.5545  C     
26   C        42.6233   29.2459  107.1595  C     
27   C        41.9055   27.4589  108.6565  C     
28   O        40.4360   28.2736  106.9352  O     
29   C        40.0162   26.9684  106.5104  C     
30   H        42.6360   33.2951  110.7942  H     
31   H        41.3851   35.3335  110.9717  H     
32   H        42.4927   37.4140  111.4587  H     
33   H        47.1794   34.6877  111.8000  H     
34   H        44.6234   38.6321  111.9796  H     
35   H        48.0953   36.7606  112.3066  H     
36   H        46.5078   31.5270  112.6936  H     
37   H        44.9746   31.2607  114.3523  H     
38   H        43.8345   32.2935  113.4804  H     
39   H        43.4378   30.4052  111.8564  H     
40   H        44.5548   29.3936  112.7969  H     
41   H        43.0297   29.9367  114.7053  H     
42   H        41.9208   30.4767  113.5927  H     
43   H        42.8388   27.7676  114.1997  H     
44   H        41.2169   28.4185  114.1159  H     
45   H        41.2043   27.1579  112.1655  H     
46   H        41.8021   28.7033  111.5121  H     
47   H        44.4104   26.2756  110.4403  H     
48   H        42.7411   25.7346  110.4503  H     
49   H        44.5190   30.0728  107.6077  H     
50   H        44.8916   28.6917  109.5764  H     
51   H        42.4483   29.8633  106.3542  H     
52   H        41.1974   26.7760  108.9457  H     
53   H        40.6781   26.5721  105.7333  H     
54   H        39.0136   27.0711  106.0841  H     
55   H        39.9553   26.2647  107.3505  H     
@<TRIPOS>BOND
     1    1    2 1
     2    1    5 2
     3    1   11 1
     4    2    3 2
     5    3    4 1
     6    4    6 2
     7    5    6 1
     8    5    7 1
     9    6    8 1
    10    7    9 2
    11    8   10 2
    12    9   10 1
    13   11   12 2
    14   11   13 2
    15   11   14 1
    16   14   15 1
    17   15   16 1
    18   16   17 1
    19   17   18 1
    20   18   19 1
    21   19   20 1
    22   20   21 1
    23   21   22 1
    24   22   24 1
    25   22   27 2
    26   23   24 2
    27   23   26 1
    28   25   26 2
    29   25   27 1
    30   25   28 1
    31   28   29 1
    32    2   30 1
    33    3   31 1
    34    4   32 1
    35    7   33 1
    36    8   34 1
    37    9   35 1
    38   14   36 1
    39   15   37 1
    40   15   38 1
    41   16   39 1
    42   16   40 1
    43   17   41 1
    44   17   42 1
    45   18   43 1
    46   18   44 1
    47   19   45 1
    48   19   46 1
    49   21   47 1
    50   21   48 1
    51   23   49 1
    52   24   50 1
    53   26   51 1
    54   27   52 1
    55   29   53 1
    56   29   54 1
    57   29   55 1
@<TRIPOS>PROPERTY_DATA
  Total_Score	| 12.7977
  Crash		| -1.2517
  Polar		| 5.1367
  FragIndex	| 1
  FragRMSD	| 0.173

