@<TRIPOS>MOLECULE
BindingDB_15213
 52 55 0 0 0
SMALL
NO_CHARGES


@<TRIPOS>ATOM
1    C        44.5029   33.9347  111.1934  C     
2    C        43.1012   33.9628  110.9918  C     
3    C        42.3653   35.1527  111.0980  C     
4    C        43.0150   36.3547  111.4047  C     
5    C        45.1678   35.1535  111.5297  C     
6    C        44.4071   36.3645  111.6209  C     
7    C        46.5485   35.2583  111.7895  C     
8    C        45.0783   37.5516  111.9356  C     
9    C        47.0934   36.4568  112.0835  C     
10   N        46.3520   37.5333  112.1446  N     
11   S        45.3044   32.3746  111.0197  S     
12   O        44.5572   31.6771  109.7996  O     
13   O        46.7746   32.4796  110.4335  O     
14   C        43.3715   31.8120  113.8859  C     
15   C        44.9055   31.8718  113.6506  C     
16   C        44.8132   29.9489  112.1623  C     
17   C        43.2527   29.8976  112.2421  C     
18   N        45.2136   31.3225  112.3559  N     
19   N        42.8168   30.4775  113.5532  N     
20   C        42.5379   28.5272  112.0207  C     
21   O        43.3200   27.3142  111.9641  O     
22   C        43.6773   26.8197  110.6602  C     
23   C        43.1775   27.5440  109.4613  C     
24   C        43.5362   29.3673  107.8576  C     
25   C        43.9847   28.5781  108.9280  C     
26   C        41.9148   27.2878  108.8655  C     
27   C        41.4644   28.0878  107.7984  C     
28   C        42.2682   29.1319  107.2990  C     
29   Cl       41.7131   30.1350  106.0557  Cl    
30   H        42.5873   33.1082  110.7697  H     
31   H        41.3532   35.1428  110.9515  H     
32   H        42.4652   37.2162  111.4735  H     
33   H        47.1374   34.4654  111.7872  H     
34   H        44.5957   38.4169  112.0025  H     
35   H        48.0655   36.5359  112.2657  H     
36   H        43.1512   32.0321  114.9327  H     
37   H        42.8710   32.5647  113.2777  H     
38   H        45.2585   32.9008  113.7484  H     
39   H        45.4074   31.2849  114.4233  H     
40   H        45.2151   29.3200  112.9570  H     
41   H        45.2406   29.5701  111.2356  H     
42   H        42.8783   30.5657  111.4641  H     
43   H        43.0788   29.8410  114.3141  H     
44   H        41.7946   30.5526  113.5457  H     
45   H        41.8201   28.3534  112.8242  H     
46   H        41.9514   28.6208  111.1019  H     
47   H        44.7637   26.8098  110.6304  H     
48   H        43.3338   25.7862  110.5955  H     
49   H        44.1279   30.1228  107.5026  H     
50   H        44.9000   28.7893  109.3360  H     
51   H        41.2772   26.5699  109.2508  H     
52   H        40.5367   27.9224  107.4009  H     
@<TRIPOS>BOND
     1    1    2 1
     2    1    5 2
     3    1   11 1
     4    2    3 2
     5    3    4 1
     6    4    6 2
     7    5    6 1
     8    5    7 1
     9    6    8 1
    10    7    9 2
    11    8   10 2
    12    9   10 1
    13   11   12 2
    14   11   13 2
    15   11   18 1
    16   14   15 1
    17   14   19 1
    18   15   18 1
    19   16   17 1
    20   16   18 1
    21   17   19 1
    22   17   20 1
    23   20   21 1
    24   21   22 1
    25   22   23 1
    26   23   25 1
    27   23   26 2
    28   24   25 2
    29   24   28 1
    30   26   27 1
    31   27   28 2
    32   28   29 1
    33    2   30 1
    34    3   31 1
    35    4   32 1
    36    7   33 1
    37    8   34 1
    38    9   35 1
    39   14   36 1
    40   14   37 1
    41   15   38 1
    42   15   39 1
    43   16   40 1
    44   16   41 1
    45   17   42 1
    46   19   43 1
    47   19   44 1
    48   20   45 1
    49   20   46 1
    50   22   47 1
    51   22   48 1
    52   24   49 1
    53   25   50 1
    54   26   51 1
    55   27   52 1
@<TRIPOS>PROPERTY_DATA
  Total_Score	| 9.7553
  Crash		| -2.1205
  Polar		| 4.3287
  FragIndex	| 1
  FragRMSD	| 0.672

