@<TRIPOS>MOLECULE
BindingDB_15219
 55 58 0 0 0
SMALL
NO_CHARGES


@<TRIPOS>ATOM
1    C        44.5560   34.0590  111.1209  C     
2    C        43.1487   34.0756  110.9869  C     
3    C        42.4049   35.2398  111.2309  C     
4    C        43.0532   36.4221  111.6187  C     
5    C        45.2263   35.2580  111.5097  C     
6    C        44.4540   36.4400  111.7545  C     
7    C        46.6179   35.3661  111.6867  C     
8    C        45.1339   37.6037  112.1348  C     
9    C        47.1661   36.5420  112.0481  C     
10   N        46.4200   37.5953  112.2565  N     
11   S        45.3768   32.5289  110.8408  S     
12   O        44.5721   31.6188  109.8131  O     
13   O        46.7757   32.7934  110.1341  O     
14   N        45.6732   31.6095  112.2252  N     
15   C        45.2594   31.9640  113.5431  C     
16   C        44.0357   31.1683  114.0688  C     
17   C        42.7304   31.2872  113.2472  C     
18   C        42.0826   29.9007  113.4065  C     
19   C        43.2944   28.9535  113.4596  C     
20   N        44.3125   29.7254  114.1915  N     
21   C        43.8190   28.4962  112.0731  C     
22   O        43.3027   27.1793  111.8048  O     
23   C        43.6661   26.5782  110.5530  C     
24   C        43.2201   27.3983  109.4021  C     
25   C        42.3109   29.0603  107.2986  C     
26   C        43.5504   29.3194  107.9086  C     
27   C        43.9895   28.5059  108.9693  C     
28   C        41.9904   27.1350  108.7650  C     
29   C        41.5291   27.9668  107.7268  C     
30   Cl       41.7090   30.1040  106.1122  Cl    
31   H        42.6415   33.2319  110.7141  H     
32   H        41.3909   35.2283  111.1302  H     
33   H        42.4950   37.2616  111.8020  H     
34   H        47.2146   34.5860  111.5665  H     
35   H        44.6540   38.4517  112.3197  H     
36   H        48.1480   36.6122  112.1749  H     
37   H        46.1041   30.7493  112.1068  H     
38   H        46.1019   31.7629  114.2078  H     
39   H        45.0404   33.0278  113.6180  H     
40   H        43.8262   31.5261  115.0826  H     
41   H        42.0887   32.0901  113.6219  H     
42   H        42.9371   31.4710  112.1907  H     
43   H        41.5306   29.8631  114.3495  H     
44   H        41.4057   29.6697  112.5828  H     
45   H        43.0445   28.0679  114.0493  H     
46   H        45.2481   29.5134  113.8458  H     
47   H        44.2482   29.4735  115.1816  H     
48   H        43.5085   29.1940  111.2913  H     
49   H        44.9105   28.4789  112.0870  H     
50   H        44.7425   26.3828  110.5165  H     
51   H        43.1705   25.6067  110.5146  H     
52   H        44.1172   30.1144  107.6102  H     
53   H        44.8712   28.7344  109.4401  H     
54   H        41.4034   26.3620  109.0746  H     
55   H        40.6129   27.7863  107.3027  H     
@<TRIPOS>BOND
     1    1    2 1
     2    1    5 2
     3    1   11 1
     4    2    3 2
     5    3    4 1
     6    4    6 2
     7    5    6 1
     8    5    7 1
     9    6    8 1
    10    7    9 2
    11    8   10 2
    12    9   10 1
    13   11   12 2
    14   11   13 2
    15   11   14 1
    16   14   15 1
    17   16   15 1
    18   16   17 1
    19   16   20 1
    20   17   18 1
    21   18   19 1
    22   19   20 1
    23   19   21 1
    24   21   22 1
    25   22   23 1
    26   23   24 1
    27   24   27 1
    28   24   28 2
    29   25   26 1
    30   25   29 2
    31   25   30 1
    32   26   27 2
    33   28   29 1
    34    2   31 1
    35    3   32 1
    36    4   33 1
    37    7   34 1
    38    8   35 1
    39    9   36 1
    40   14   37 1
    41   15   38 1
    42   15   39 1
    43   16   40 1
    44   17   41 1
    45   17   42 1
    46   18   43 1
    47   18   44 1
    48   19   45 1
    49   20   46 1
    50   20   47 1
    51   21   48 1
    52   21   49 1
    53   23   50 1
    54   23   51 1
    55   26   52 1
    56   27   53 1
    57   28   54 1
    58   29   55 1
@<TRIPOS>PROPERTY_DATA
  Total_Score	| 8.9471
  Crash		| -3.2405
  Polar		| 2.3650
  FragIndex	| 1
  FragRMSD	| 0.679

