@<TRIPOS>MOLECULE
BindingDB_50335235
 53 57 0 0 0
SMALL
NO_CHARGES


@<TRIPOS>ATOM
1    C         9.5292   -4.1541    8.7939  C     
2    C        10.6921   -4.2909    9.4771  C     
3    C        11.5256   -3.3371    9.0012  C     
4    N        10.8936   -2.6015    8.1207  N     
5    C         9.6744   -3.0802    7.9960  C     
6    O         8.8473   -2.5580    7.2676  O     
7    O        12.7097   -3.1347    9.2692  O     
8    C         8.2803   -4.7101    9.0832  C     
9    C         7.3888   -5.2676    8.1067  C     
10   C         6.0944   -5.6778    8.5427  C     
11   C         5.6936   -5.5895    9.8799  C     
12   C         6.5691   -5.0479   10.8357  C     
13   C         7.8399   -4.6082   10.4098  C     
14   C        11.0174   -5.0976   10.5757  C     
15   C        11.8081   -4.6803   11.6485  C     
16   N        11.8854   -5.6409   12.5804  N     
17   C        10.6085   -6.3976   10.9080  C     
18   C        11.1705   -6.7015   12.1606  C     
19   C        10.9388   -7.9277   12.8164  C     
20   C        10.1402   -8.8808   12.1679  C     
21   C         9.5724   -8.6091   10.9103  C     
22   C         9.8219   -7.3736   10.2657  C     
23   N         6.1843   -4.9226   12.1319  N     
24   C         5.5302   -6.0455   12.7643  C     
25   C         5.8910   -6.2314   14.2778  C     
26   N         7.3049   -5.9312   14.4876  N     
27   C         7.8552   -4.7252   13.9155  C     
28   C         6.8742   -3.9623   12.9731  C     
29   C         7.7016   -5.4905    6.6476  C     
30   F         7.3692   -6.7816    6.2643  F     
31   F         6.9790   -4.6126    5.8610  F     
32   F         9.0162   -5.3524    6.2529  F     
33   C         8.1323   -6.7486   15.1580  C     
34   O         7.8172   -7.8828   15.5423  O     
35   H        11.2644   -1.8377    7.6614  H     
36   H         5.4116   -6.0492    7.8652  H     
37   H         4.7629   -5.9194   10.1434  H     
38   H         8.4487   -4.2049   11.1150  H     
39   H        12.2302   -3.7641   11.7714  H     
40   H        12.3651   -5.5783   13.4368  H     
41   H        11.3371   -8.1106   13.7509  H     
42   H         9.9508   -9.7878   12.6378  H     
43   H         8.9744   -9.3093   10.4649  H     
44   H         9.4213   -7.1915    9.3592  H     
45   H         4.4355   -5.9472   12.6460  H     
46   H         5.8143   -6.9868   12.2738  H     
47   H         5.2921   -5.5137   14.8591  H     
48   H         5.5933   -7.2272   14.5971  H     
49   H         8.1967   -4.0490   14.6950  H     
50   H         8.7276   -4.9845   13.3071  H     
51   H         7.4214   -3.2127   12.4126  H     
52   H         6.1378   -3.4305   13.5707  H     
53   H         9.0461   -6.4481   15.3914  H     
@<TRIPOS>BOND
     1    1    2 2
     2    1    5 1
     3    1    8 1
     4    2    3 1
     5    2   14 1
     6    3    4 1
     7    3    7 2
     8    4    5 1
     9    5    6 2
    10    8    9 2
    11    8   13 1
    12    9   10 1
    13    9   29 1
    14   10   11 2
    15   11   12 1
    16   12   13 2
    17   12   23 1
    18   14   15 2
    19   14   17 1
    20   15   16 1
    21   16   18 1
    22   17   18 2
    23   17   22 1
    24   18   19 1
    25   19   20 2
    26   20   21 1
    27   21   22 2
    28   23   24 1
    29   23   28 1
    30   24   25 1
    31   25   26 1
    32   26   27 1
    33   26   33 am
    34   27   28 1
    35   29   30 1
    36   29   31 1
    37   29   32 1
    38   33   34 2
    39    4   35 1
    40   10   36 1
    41   11   37 1
    42   13   38 1
    43   15   39 1
    44   16   40 1
    45   19   41 1
    46   20   42 1
    47   21   43 1
    48   22   44 1
    49   24   45 1
    50   24   46 1
    51   25   47 1
    52   25   48 1
    53   27   49 1
    54   27   50 1
    55   28   51 1
    56   28   52 1
    57   33   53 1
@<TRIPOS>PROPERTY_DATA
  Total_Score	| 9.4766
  Crash		| -1.7062
  Polar		| 2.3138
  FragIndex	| 1
  FragRMSD	| 0.120

