@<TRIPOS>MOLECULE
BindingDB_50335233
 52 56 0 0 0
SMALL
NO_CHARGES


@<TRIPOS>ATOM
1    C         9.5198   -4.0054    8.6305  C     
2    C        10.7033   -4.2241    9.2494  C     
3    C        11.5672   -3.3007    8.7689  C     
4    N        10.9351   -2.5127    7.9477  N     
5    C         9.6952   -2.9041    7.8696  C     
6    O         8.8523   -2.1908    7.3518  O     
7    O        12.7446   -3.1291    9.0487  O     
8    C         8.2472   -4.5059    8.9674  C     
9    C         7.3426   -5.1454    8.0567  C     
10   C         6.1292   -5.6568    8.5840  C     
11   C         5.8143   -5.5773    9.9470  C     
12   C         6.6842   -4.9580   10.8709  C     
13   C         7.8682   -4.3953   10.3318  C     
14   C        11.0007   -5.0697   10.3319  C     
15   C        11.9200   -4.7631   11.3479  C     
16   N        11.9373   -5.7343   12.2708  N     
17   C        10.4577   -6.3076   10.7058  C     
18   C        11.0605   -6.6777   11.9146  C     
19   C        10.7295   -7.8698   12.5804  C     
20   C         9.7560   -8.7102   12.0064  C     
21   C         9.1475   -8.3623   10.7817  C     
22   C         9.5038   -7.1668   10.1227  C     
23   N         6.4340   -4.9541   12.2281  N     
24   C         5.7410   -6.0447   12.9018  C     
25   C         6.7386   -6.7849   13.8369  C     
26   N         7.4984   -5.8511   14.7031  N     
27   C         8.1041   -4.7051   13.9887  C     
28   C         7.0277   -3.9900   13.1396  C     
29   C         7.5570   -5.4221    6.5959  C     
30   F         6.5107   -4.9302    5.8513  F     
31   F         8.6777   -4.9244    5.9937  F     
32   F         7.6101   -6.7799    6.3944  F     
33   H        11.3072   -1.7257    7.5187  H     
34   H         5.4542   -6.1251    7.9715  H     
35   H         4.9158   -5.9575   10.2486  H     
36   H         8.5327   -3.9628   10.9755  H     
37   H        12.4778   -3.9094   11.4229  H     
38   H        12.4836   -5.7435   13.0727  H     
39   H        11.1763   -8.1153   13.4661  H     
40   H         9.4885   -9.5753   12.4802  H     
41   H         8.4409   -8.9803   10.3731  H     
42   H         9.0614   -6.9305    9.2394  H     
43   H         4.9084   -5.6441   13.4887  H     
44   H         5.3259   -6.7977   12.2283  H     
45   H         6.1931   -7.4865   14.4721  H     
46   H         7.4464   -7.3562   13.2308  H     
47   H         6.8641   -5.4739   15.4052  H     
48   H         8.2372   -6.3714   15.1805  H     
49   H         8.5177   -4.0022   14.7139  H     
50   H         8.9171   -5.0605   13.3518  H     
51   H         7.4589   -3.1207   12.6427  H     
52   H         6.2548   -3.5906   13.8021  H     
@<TRIPOS>BOND
     1    1    2 2
     2    1    5 1
     3    1    8 1
     4    2    3 1
     5    2   14 1
     6    3    4 1
     7    3    7 2
     8    4    5 1
     9    5    6 2
    10    8    9 2
    11    8   13 1
    12    9   10 1
    13    9   29 1
    14   10   11 2
    15   11   12 1
    16   12   13 2
    17   12   23 1
    18   14   15 2
    19   14   17 1
    20   15   16 1
    21   16   18 1
    22   17   18 2
    23   17   22 1
    24   18   19 1
    25   19   20 2
    26   20   21 1
    27   21   22 2
    28   23   24 1
    29   23   28 1
    30   24   25 1
    31   25   26 1
    32   26   27 1
    33   27   28 1
    34   29   30 1
    35   29   31 1
    36   29   32 1
    37    4   33 1
    38   10   34 1
    39   11   35 1
    40   13   36 1
    41   15   37 1
    42   16   38 1
    43   19   39 1
    44   20   40 1
    45   21   41 1
    46   22   42 1
    47   24   43 1
    48   24   44 1
    49   25   45 1
    50   25   46 1
    51   26   47 1
    52   26   48 1
    53   27   49 1
    54   27   50 1
    55   28   51 1
    56   28   52 1
@<TRIPOS>PROPERTY_DATA
  Total_Score	| 10.1878
  Crash		| -1.2157
  Polar		| 3.4578
  FragIndex	| 1
  FragRMSD	| 0.297

