@<TRIPOS>MOLECULE
BindingDB_50335234
 45 48 0 0 0
SMALL
NO_CHARGES


@<TRIPOS>ATOM
1    C         9.4217   -3.9804    8.9577  C     
2    C        10.6030   -4.1489    9.5855  C     
3    C        11.4541   -3.2526    9.0386  C     
4    N        10.8230   -2.5664    8.1218  N     
5    C         9.5840   -2.9788    8.0662  C     
6    O         8.7484   -2.4965    7.3125  O     
7    O        12.6421   -3.0913    9.2840  O     
8    C         8.1972   -4.5925    9.2450  C     
9    C         7.3796   -5.2081    8.2527  C     
10   C         6.1386   -5.7498    8.6670  C     
11   C         5.7764   -5.7994   10.0198  C     
12   C         6.5986   -5.2708   11.0470  C     
13   C         7.7723   -4.6029   10.6008  C     
14   C        10.9208   -5.0279   10.6350  C     
15   C        11.8124   -4.7337   11.6817  C     
16   N        11.8405   -5.7551   12.5539  N     
17   C        10.4336   -6.3128   10.9131  C     
18   C        11.0179   -6.7210   12.1198  C     
19   C        10.7283   -7.9648   12.7043  C     
20   C         9.8148   -8.8199   12.0478  C     
21   C         9.2423   -8.4318   10.8108  C     
22   C         9.5563   -7.1831   10.2288  C     
23   N         6.2959   -5.4299   12.3887  N     
24   C         7.7219   -5.3574    6.7984  C     
25   F         7.4289   -6.6178    6.3463  F     
26   F         7.0036   -4.4549    6.0503  F     
27   F         9.0414   -5.1963    6.4692  F     
28   C         6.8388   -4.5470   13.4061  C     
29   C         5.4824   -6.5509   12.8440  C     
30   H        11.2120   -1.8635    7.5753  H     
31   H         5.4969   -6.1702    7.9846  H     
32   H         4.8804   -6.2366   10.2371  H     
33   H         8.3879   -4.1694   11.2906  H     
34   H        12.3444   -3.8666   11.8050  H     
35   H        12.3634   -5.7883   13.3718  H     
36   H        11.1703   -8.2460   13.5854  H     
37   H         9.5799   -9.7269   12.4620  H     
38   H         8.5925   -9.0632   10.3372  H     
39   H         9.1443   -6.9032    9.3236  H     
40   H         7.9239   -4.6537   13.4519  H     
41   H         6.4529   -4.7369   14.4073  H     
42   H         6.5942   -3.5084   13.1702  H     
43   H         4.4613   -6.4636   12.4637  H     
44   H         5.4098   -6.6414   13.9289  H     
45   H         5.9129   -7.4830   12.4711  H     
@<TRIPOS>BOND
     1    1    2 2
     2    1    5 1
     3    1    8 1
     4    2    3 1
     5    2   14 1
     6    3    4 1
     7    3    7 2
     8    4    5 1
     9    5    6 2
    10    8    9 2
    11    8   13 1
    12    9   10 1
    13    9   24 1
    14   10   11 2
    15   11   12 1
    16   12   13 2
    17   12   23 1
    18   14   15 2
    19   14   17 1
    20   15   16 1
    21   16   18 1
    22   17   18 2
    23   17   22 1
    24   18   19 1
    25   19   20 2
    26   20   21 1
    27   21   22 2
    28   23   28 1
    29   23   29 1
    30   24   25 1
    31   24   26 1
    32   24   27 1
    33    4   30 1
    34   10   31 1
    35   11   32 1
    36   13   33 1
    37   15   34 1
    38   16   35 1
    39   19   36 1
    40   20   37 1
    41   21   38 1
    42   22   39 1
    43   28   40 1
    44   28   41 1
    45   28   42 1
    46   29   43 1
    47   29   44 1
    48   29   45 1
@<TRIPOS>PROPERTY_DATA
  Total_Score	| 8.0409
  Crash		| -0.9648
  Polar		| 2.3277
  FragIndex	| 1
  FragRMSD	| 0.127

