@<TRIPOS>MOLECULE
BindingDB_50335231
 63 67 0 0 0
SMALL
NO_CHARGES


@<TRIPOS>ATOM
1    C         9.4263   -4.0492    8.9400  C     
2    C        10.6214   -4.2488    9.5328  C     
3    C        11.4824   -3.3777    8.9569  C     
4    N        10.8410   -2.6559    8.0785  N     
5    C         9.5912   -3.0283    8.0691  C     
6    O         8.7393   -2.4732    7.3876  O     
7    O        12.6877   -3.2690    9.1356  O     
8    C         8.1716   -4.6110    9.2266  C     
9    C         7.3053   -5.1247    8.2108  C     
10   C         5.9898   -5.4778    8.5853  C     
11   C         5.5887   -5.4911    9.9269  C     
12   C         6.4773   -5.1726   10.9828  C     
13   C         7.7392   -4.6539   10.5806  C     
14   C        10.9683   -5.1102   10.5839  C     
15   C        11.8842   -4.7838   11.5952  C     
16   N        11.9807   -5.7881   12.4763  N     
17   C        10.5130   -6.3972   10.9116  C     
18   C        11.1635   -6.7733   12.0934  C     
19   C        10.9349   -8.0154   12.7084  C     
20   C        10.0015   -8.8901   12.1271  C     
21   C         9.3487   -8.5402   10.9252  C     
22   C         9.6193   -7.3029   10.3034  C     
23   N         6.1404   -5.3934   12.3085  N     
24   C         5.1117   -6.3287   12.7293  C     
25   C         5.7846   -7.5667   13.3842  C     
26   N         6.9963   -7.3617   14.1752  N     
27   C         7.6041   -6.0460   14.1850  C     
28   C         6.8745   -4.8884   13.4495  C     
29   C         7.6691   -5.3724    6.7750  C     
30   F         7.3219   -6.6482    6.4033  F     
31   F         7.0023   -4.4885    5.9629  F     
32   F         9.0004   -5.3175    6.4550  F     
33   C         7.5581   -8.4136   14.8275  C     
34   C         8.6719   -8.4012   15.8167  C     
35   O         7.0044   -9.5050   14.7040  O     
36   O         9.7539   -7.5223   15.4652  O     
37   C         8.1102   -8.0096   17.2157  C     
38   C         9.3885   -9.7881   15.9541  C     
39   H        11.2316   -1.9577    7.5259  H     
40   H         5.3118   -5.7743    7.8771  H     
41   H         4.6166   -5.7355   10.1112  H     
42   H         8.3989   -4.3472   11.2950  H     
43   H        12.3887   -3.9002   11.6889  H     
44   H        12.5413   -5.7931   13.2685  H     
45   H        11.4313   -8.2688   13.5654  H     
46   H         9.8063   -9.7923   12.5676  H     
47   H         8.6819   -9.1886   10.5034  H     
48   H         9.1660   -7.0785    9.4200  H     
49   H         4.4389   -5.8455   13.4472  H     
50   H         4.4693   -6.7036   11.9363  H     
51   H         5.0232   -8.0335   14.0182  H     
52   H         6.0352   -8.2665   12.5805  H     
53   H         7.7014   -5.7412   15.2242  H     
54   H         8.5966   -6.1190   13.7403  H     
55   H         7.5800   -4.0908   13.2093  H     
56   H         6.1643   -4.4218   14.1406  H     
57   H         9.5527   -6.6182   15.7902  H     
58   H         7.7125   -6.9942   17.2083  H     
59   H         8.8973   -8.0580   17.9721  H     
60   H         7.3059   -8.6863   17.5174  H     
61   H         8.7137  -10.5454   16.3604  H     
62   H        10.2518   -9.7179   16.6221  H     
63   H         9.7418  -10.1341   14.9807  H     
@<TRIPOS>BOND
     1    1    2 2
     2    1    5 1
     3    1    8 1
     4    2    3 1
     5    2   14 1
     6    3    4 1
     7    3    7 2
     8    4    5 1
     9    5    6 2
    10    8    9 2
    11    8   13 1
    12    9   10 1
    13    9   29 1
    14   10   11 2
    15   11   12 1
    16   12   13 2
    17   12   23 1
    18   14   15 2
    19   14   17 1
    20   15   16 1
    21   16   18 1
    22   17   18 2
    23   17   22 1
    24   18   19 1
    25   19   20 2
    26   20   21 1
    27   21   22 2
    28   23   24 1
    29   23   28 1
    30   24   25 1
    31   25   26 1
    32   26   27 1
    33   26   33 am
    34   27   28 1
    35   29   30 1
    36   29   31 1
    37   29   32 1
    38   33   34 1
    39   33   35 2
    40   34   36 1
    41   34   37 1
    42   34   38 1
    43    4   39 1
    44   10   40 1
    45   11   41 1
    46   13   42 1
    47   15   43 1
    48   16   44 1
    49   19   45 1
    50   20   46 1
    51   21   47 1
    52   22   48 1
    53   24   49 1
    54   24   50 1
    55   25   51 1
    56   25   52 1
    57   27   53 1
    58   27   54 1
    59   28   55 1
    60   28   56 1
    61   36   57 1
    62   37   58 1
    63   37   59 1
    64   37   60 1
    65   38   61 1
    66   38   62 1
    67   38   63 1
@<TRIPOS>PROPERTY_DATA
  Total_Score	| 10.5290
  Crash		| -1.5100
  Polar		| 2.1951
  FragIndex	| 1
  FragRMSD	| 0.167

