@<TRIPOS>MOLECULE
BindingDB_50335237
 49 53 0 0 0
SMALL
NO_CHARGES


@<TRIPOS>ATOM
1    C         7.3970   -5.2413    8.1173  C     
2    C         8.2334   -4.6855    9.1311  C     
3    C         6.6838   -5.3452   10.8609  C     
4    C         6.1637   -5.7695    8.5748  C     
5    N         6.3911   -5.4921   12.1887  N     
6    C         7.3107   -5.0840   13.2397  C     
7    C         5.6387   -7.4699   13.4739  C     
8    C        10.6146   -4.1520    9.5654  C     
9    F         7.4764   -6.6765    6.2395  F     
10   C         7.7126   -5.3970    6.6603  C     
11   F         6.9266   -4.5490    5.9244  F     
12   F         9.0192   -5.1937    6.3106  F     
13   N         7.8373   -4.7743   10.4289  N     
14   N         5.8691   -5.8243    9.8918  N     
15   C         7.8090   -6.3357   14.0036  C     
16   C         6.6833   -7.1465   14.4286  C     
17   C         5.2192   -6.2044   12.6681  C     
18   O         6.6099   -7.5334   15.5876  O     
19   C         9.4411   -4.0279    8.9087  C     
20   C        11.4477   -3.2369    9.0104  C     
21   N        10.8084   -2.5687    8.0866  N     
22   C         9.5786   -3.0016    8.0327  C     
23   O         8.7260   -2.4666    7.3356  O     
24   O        12.6387   -3.0465    9.2388  O     
25   C        10.9807   -5.0080   10.6250  C     
26   C        11.9044   -4.6736   11.6327  C     
27   N        12.0555   -5.6794   12.5083  N     
28   C        11.2707   -6.6876   12.1244  C     
29   C        10.5870   -6.3145   10.9556  C     
30   C         9.7267   -7.2394   10.3414  C     
31   C         9.5192   -8.4988   10.9358  C     
32   C        10.2026   -8.8552   12.1167  C     
33   C        11.1110   -7.9585   12.7125  C     
34   H         5.4797   -6.1632    7.9189  H     
35   H         8.1889   -4.5430   12.8721  H     
36   H         6.7973   -4.4006   13.9311  H     
37   H         6.0036   -8.2344   12.7803  H     
38   H         4.7537   -7.8735   13.9873  H     
39   H         8.4452   -6.9376   13.3501  H     
40   H         8.4148   -6.0084   14.8510  H     
41   H         4.6398   -5.5424   13.3233  H     
42   H         4.5366   -6.5201   11.8712  H     
43   H        11.1751   -1.8528    7.5280  H     
44   H        12.3926   -3.7829   11.7210  H     
45   H        12.6259   -5.6727   13.2861  H     
46   H         9.2390   -6.9921    9.4881  H     
47   H         8.8631   -9.1506   10.5164  H     
48   H        10.0390   -9.7717   12.5400  H     
49   H        11.6469   -8.2270   13.5431  H     
@<TRIPOS>BOND
     1    1    2 1
     2    1    4 2
     3    1   10 1
     4    2   13 2
     5    2   19 1
     6    3    5 1
     7    3   13 1
     8    3   14 2
     9    4   14 1
    10    5    6 1
    11    5   17 1
    12    6   15 1
    13    7   16 1
    14    7   17 1
    15    8   19 2
    16    8   20 1
    17    8   25 1
    18    9   10 1
    19   10   11 1
    20   10   12 1
    21   15   16 1
    22   16   18 2
    23   19   22 1
    24   20   21 1
    25   20   24 2
    26   21   22 1
    27   22   23 2
    28   25   26 2
    29   25   29 1
    30   26   27 1
    31   27   28 1
    32   28   29 2
    33   28   33 1
    34   29   30 1
    35   30   31 2
    36   31   32 1
    37   32   33 2
    38    4   34 1
    39    6   35 1
    40    6   36 1
    41    7   37 1
    42    7   38 1
    43   15   39 1
    44   15   40 1
    45   17   41 1
    46   17   42 1
    47   21   43 1
    48   26   44 1
    49   27   45 1
    50   30   46 1
    51   31   47 1
    52   32   48 1
    53   33   49 1
@<TRIPOS>PROPERTY_DATA
  Total_Score	| 9.3741
  Crash		| -0.8321
  Polar		| 2.3292
  FragIndex	| 1
  FragRMSD	| 0.141

