@<TRIPOS>MOLECULE
BindingDB_50128285
 69 75 0 0 0
SMALL
NO_CHARGES


@<TRIPOS>ATOM
1    C         9.5746   -3.9892    9.0990  C     
2    C        10.8102   -4.2053    9.5997  C     
3    C         8.3768   -4.3943    9.6729  C     
4    C        11.1836   -5.1170   10.5950  C     
5    C        11.6257   -3.3208    8.9919  C     
6    C         9.6812   -3.0480    8.1523  C     
7    N         6.9492   -4.9551   11.3591  N     
8    N        10.9237   -2.6358    8.1203  N     
9    C         8.0883   -4.2931   11.0217  C     
10   C        12.1852   -4.9104   11.5464  C     
11   N        12.2669   -5.9689   12.3805  N     
12   C         7.2716   -5.0308    9.1236  C     
13   C         6.3896   -5.3441   10.1786  C     
14   C        10.6748   -6.3929   10.8836  C     
15   C        11.3481   -6.8767   12.0072  C     
16   C         6.6070   -5.0578   12.7856  C     
17   N         6.8108   -7.6488   14.2696  N     
18   O        12.8035   -3.1039    9.2178  O     
19   O         8.7838   -2.5431    7.4871  O     
20   C         5.3588   -5.8793   13.2839  C     
21   C         7.8334   -5.5545   13.6382  C     
22   N         8.2659  -10.3962   16.3734  N     
23   C         5.5827   -7.4211   13.4522  C     
24   C         7.9711   -7.0932   13.5284  C     
25   C         7.0565   -9.0186   14.8106  C     
26   C         8.0733   -9.1269   15.9080  C     
27   C        13.1775   -6.0947   13.4739  C     
28   C         5.1519   -5.9401    9.8321  C     
29   C         7.0145   -5.3828    7.7834  C     
30   C         9.6903   -7.1891   10.2554  C     
31   C        11.0527   -8.1539   12.5336  C     
32   C         9.1707  -10.7228   17.3295  C     
33   C         8.8672   -8.0699   16.4733  C     
34   C         4.8600   -6.2670    8.4905  C     
35   C         9.3770   -8.4558   10.7837  C     
36   C         5.7917   -5.9929    7.4709  C     
37   C        10.0474   -8.9301   11.9260  C     
38   C         9.9861   -9.7232   17.8914  C     
39   C         9.8315   -8.3956   17.4426  C     
40   H        11.2612   -1.9246    7.5521  H     
41   H         8.7125   -3.8117   11.6673  H     
42   H        12.7544   -4.0624   11.6322  H     
43   H         6.4105   -4.0200   13.0890  H     
44   H         6.6862   -7.0713   15.1090  H     
45   H         5.0874   -5.4905   14.2724  H     
46   H         4.4974   -5.7036   12.6592  H     
47   H         8.7941   -5.1039   13.3714  H     
48   H         7.6694   -5.2679   14.6865  H     
49   H         5.6691   -7.9029   12.4750  H     
50   H         4.7107   -7.8392   13.9597  H     
51   H         8.9037   -7.4474   13.9727  H     
52   H         7.9880   -7.4005   12.4802  H     
53   H         6.1191   -9.3923   15.2131  H     
54   H         7.3478   -9.6827   13.9994  H     
55   H        13.9890   -5.3623   13.3994  H     
56   H        13.6295   -7.0942   13.4881  H     
57   H        12.6353   -5.9385   14.4131  H     
58   H         4.4413   -6.1337   10.5280  H     
59   H         7.6921   -5.1692    7.0436  H     
60   H         9.2041   -6.8727    9.4213  H     
61   H        11.5514   -8.5074   13.3492  H     
62   H         9.2650  -11.6906   17.6379  H     
63   H         8.8351   -7.0892   16.1108  H     
64   H         3.9617   -6.6843    8.2480  H     
65   H         8.6560   -9.0276   10.3428  H     
66   H         5.5858   -6.2401    6.5063  H     
67   H         9.8090   -9.8415   12.3160  H     
68   H        10.6750   -9.9477   18.6098  H     
69   H        10.4417   -7.6608   17.8093  H     
@<TRIPOS>BOND
     1    1    2 2
     2    1    3 1
     3    1    6 1
     4    2    4 1
     5    2    5 1
     6    3    9 2
     7    3   12 1
     8    4   10 2
     9    4   14 1
    10    5    8 1
    11    5   18 2
    12    6    8 1
    13    6   19 2
    14    7    9 1
    15    7   13 1
    16    7   16 1
    17   10   11 1
    18   11   15 1
    19   11   27 1
    20   12   13 2
    21   12   29 1
    22   13   28 1
    23   14   15 2
    24   14   30 1
    25   15   31 1
    26   16   20 1
    27   16   21 1
    28   17   23 1
    29   17   24 1
    30   17   25 1
    31   20   23 1
    32   21   24 1
    33   22   26 1
    34   22   32 2
    35   25   26 1
    36   26   33 2
    37   28   34 2
    38   29   36 2
    39   30   35 2
    40   31   37 2
    41   32   38 1
    42   33   39 1
    43   34   36 1
    44   35   37 1
    45   38   39 2
    46    8   40 1
    47    9   41 1
    48   10   42 1
    49   16   43 1
    50   17   44 1
    51   20   45 1
    52   20   46 1
    53   21   47 1
    54   21   48 1
    55   23   49 1
    56   23   50 1
    57   24   51 1
    58   24   52 1
    59   25   53 1
    60   25   54 1
    61   27   55 1
    62   27   56 1
    63   27   57 1
    64   28   58 1
    65   29   59 1
    66   30   60 1
    67   31   61 1
    68   32   62 1
    69   33   63 1
    70   34   64 1
    71   35   65 1
    72   36   66 1
    73   37   67 1
    74   38   68 1
    75   39   69 1
@<TRIPOS>PROPERTY_DATA
  Total_Score	| 9.2787
  Crash		| -2.4630
  Polar		| 2.3005
  FragIndex	| 1
  FragRMSD	| 0.598

