@<TRIPOS>MOLECULE
BindingDB_50335232
 37 40 0 0 0
SMALL
NO_CHARGES


@<TRIPOS>ATOM
1    C         9.4231   -3.9634    8.8821  C     
2    C        10.6144   -4.1521    9.4835  C     
3    C        11.4560   -3.2385    8.9525  C     
4    N        10.8035   -2.4980    8.0987  N     
5    C         9.5668   -2.9167    8.0408  C     
6    O         8.7030   -2.3582    7.3738  O     
7    O        12.6451   -3.0696    9.1929  O     
8    C         8.1790   -4.5215    9.1914  C     
9    C         7.3274   -5.1434    8.2176  C     
10   C         6.0400   -5.5804    8.6367  C     
11   C         5.6199   -5.4713    9.9730  C     
12   C         6.4737   -4.9055   10.9296  C     
13   C         7.7390   -4.4308   10.5398  C     
14   C        10.9462   -5.0291   10.5262  C     
15   C        11.8792   -4.7473   11.5365  C     
16   N        11.9550   -5.7726   12.3978  N     
17   C        10.4552   -6.3099   10.8336  C     
18   C        11.1063   -6.7307   12.0011  C     
19   C        10.8576   -7.9863   12.5858  C     
20   C         9.9192   -8.8382   11.9665  C     
21   C         9.2637   -8.4406   10.7832  C     
22   C         9.5454   -7.1835   10.2003  C     
23   C         7.6929   -5.4221    6.7871  C     
24   F         7.4042   -6.7265    6.4452  F     
25   F         6.9692   -4.6046    5.9555  F     
26   F         9.0142   -5.2811    6.4408  F     
27   F         6.0873   -4.8071   12.1751  F     
28   H        11.1755   -1.7579    7.5912  H     
29   H         5.3903   -6.0040    7.9653  H     
30   H         4.6939   -5.8170   10.2468  H     
31   H         8.3411   -4.0167   11.2596  H     
32   H        12.4127   -3.8817   11.6380  H     
33   H        12.5283   -5.8128   13.1766  H     
34   H        11.3561   -8.2762   13.4262  H     
35   H         9.7269   -9.7569   12.3682  H     
36   H         8.5870   -9.0673   10.3361  H     
37   H         9.1033   -6.9340    9.3176  H     
@<TRIPOS>BOND
     1    1    2 2
     2    1    5 1
     3    1    8 1
     4    2    3 1
     5    2   14 1
     6    3    4 1
     7    3    7 2
     8    4    5 1
     9    5    6 2
    10    8    9 2
    11    8   13 1
    12    9   10 1
    13    9   23 1
    14   10   11 2
    15   11   12 1
    16   12   13 2
    17   12   27 1
    18   14   15 2
    19   14   17 1
    20   15   16 1
    21   16   18 1
    22   17   18 2
    23   17   22 1
    24   18   19 1
    25   19   20 2
    26   20   21 1
    27   21   22 2
    28   23   24 1
    29   23   25 1
    30   23   26 1
    31    4   28 1
    32   10   29 1
    33   11   30 1
    34   13   31 1
    35   15   32 1
    36   16   33 1
    37   19   34 1
    38   20   35 1
    39   21   36 1
    40   22   37 1
@<TRIPOS>PROPERTY_DATA
  Total_Score	| 7.2979
  Crash		| -0.6299
  Polar		| 2.3124
  FragIndex	| 1
  FragRMSD	| 0.153

