@<TRIPOS>MOLECULE
BindingDB_50335236
 50 54 0 0 0
SMALL
NO_CHARGES


@<TRIPOS>ATOM
1    C         9.4415   -4.0293    8.8984  C     
2    C        10.6240   -4.1977    9.5261  C     
3    C        11.4630   -3.2679    9.0159  C     
4    N        10.8187   -2.5425    8.1432  N     
5    C         9.5888   -2.9723    8.0700  C     
6    O         8.7403   -2.4356    7.3719  O     
7    O        12.6525   -3.1081    9.2498  O     
8    C         8.1925   -4.6105    9.1687  C     
9    C         7.3492   -5.1679    8.1573  C     
10   C         6.0540   -5.5907    8.5389  C     
11   C         5.6430   -5.5903    9.8792  C     
12   C         6.4978   -5.1655   10.9239  C     
13   C         7.7437   -4.6202   10.5162  C     
14   C        10.9546   -5.0578   10.5844  C     
15   C        11.8140   -4.7167   11.6390  C     
16   N        11.8741   -5.7165   12.5299  N     
17   C        10.5049   -6.3515   10.8910  C     
18   C        11.0921   -6.7159   12.1086  C     
19   C        10.8341   -7.9546   12.7198  C     
20   C         9.9560   -8.8504   12.0787  C     
21   C         9.3698   -8.5096   10.8413  C     
22   C         9.6538   -7.2670   10.2365  C     
23   N         6.1478   -5.3088   12.2540  N     
24   C         5.0165   -6.1227   12.6915  C     
25   C         5.5328   -7.2945   13.5724  C     
26   O         6.4091   -6.8360   14.6231  O     
27   C         7.5004   -6.0126   14.1589  C     
28   C         6.9509   -4.8077   13.3583  C     
29   C         7.7210   -5.4017    6.7216  C     
30   F         7.4741   -6.7090    6.3760  F     
31   F         6.9707   -4.5930    5.9052  F     
32   F         9.0332   -5.2101    6.3758  F     
33   H        11.1916   -1.8036    7.6354  H     
34   H         5.3971   -5.9445    7.8368  H     
35   H         4.6885   -5.8947   10.0750  H     
36   H         8.3875   -4.2768   11.2277  H     
37   H        12.2980   -3.8244   11.7576  H     
38   H        12.3883   -5.7083   13.3529  H     
39   H        11.2677   -8.1963   13.6129  H     
40   H         9.7459   -9.7517   12.5112  H     
41   H         8.7336   -9.1666   10.3832  H     
42   H         9.2385   -7.0407    9.3357  H     
43   H         4.3250   -5.5065   13.2739  H     
44   H         4.4411   -6.5763   11.8834  H     
45   H         4.6840   -7.8023   14.0366  H     
46   H         6.0594   -8.0227   12.9479  H     
47   H         8.0549   -5.6488   15.0241  H     
48   H         8.1842   -6.5998   13.5394  H     
49   H         7.7691   -4.1461   13.0735  H     
50   H         6.3148   -4.2110   14.0149  H     
@<TRIPOS>BOND
     1    1    2 2
     2    1    5 1
     3    1    8 1
     4    2    3 1
     5    2   14 1
     6    3    4 1
     7    3    7 2
     8    4    5 1
     9    5    6 2
    10    8    9 2
    11    8   13 1
    12    9   10 1
    13    9   29 1
    14   10   11 2
    15   11   12 1
    16   12   13 2
    17   12   23 1
    18   14   15 2
    19   14   17 1
    20   15   16 1
    21   16   18 1
    22   17   18 2
    23   17   22 1
    24   18   19 1
    25   19   20 2
    26   20   21 1
    27   21   22 2
    28   23   24 1
    29   23   28 1
    30   24   25 1
    31   25   26 1
    32   26   27 1
    33   27   28 1
    34   29   30 1
    35   29   31 1
    36   29   32 1
    37    4   33 1
    38   10   34 1
    39   11   35 1
    40   13   36 1
    41   15   37 1
    42   16   38 1
    43   19   39 1
    44   20   40 1
    45   21   41 1
    46   22   42 1
    47   24   43 1
    48   24   44 1
    49   25   45 1
    50   25   46 1
    51   27   47 1
    52   27   48 1
    53   28   49 1
    54   28   50 1
@<TRIPOS>PROPERTY_DATA
  Total_Score	| 9.4015
  Crash		| -1.3181
  Polar		| 2.3034
  FragIndex	| 1
  FragRMSD	| 0.084

