@<TRIPOS>MOLECULE
BindingDB_50183058
 40 42 0 0 0
SMALL
NO_CHARGES


@<TRIPOS>ATOM
1    C        29.0720  -23.1035   29.3660  C     
2    O        27.6594  -23.2367   29.5755  O     
3    C        27.4129  -22.8702   30.9283  C     
4    C        28.7524  -23.1046   31.6364  C     
5    O        29.7286  -22.8671   30.6253  O     
6    C        31.7881  -19.3652   31.0436  C     
7    C        31.1050  -18.8525   32.1617  C     
8    C        29.6980  -18.8543   32.1787  C     
9    C        28.9785  -19.3905   31.0943  C     
10   C        29.6521  -19.9314   29.9719  C     
11   C        31.0672  -19.8863   29.9547  C     
12   Cl       31.9712  -18.2026   33.4626  Cl    
13   C        28.9016  -20.4949   28.8127  C     
14   C        29.3319  -21.9258   28.3728  C     
15   C        29.6047  -24.4372   28.7557  C     
16   N        29.5154  -25.5511   29.6523  N     
17   C        30.4023  -25.8842   30.6046  C     
18   C        29.9220  -27.0145   31.2456  C     
19   N        28.7586  -27.3537   30.6762  N     
20   C        28.5227  -26.4594   29.7029  C     
21   C        26.2211  -23.6719   31.4935  C     
22   H        27.1622  -21.8084   30.9676  H     
23   H        28.8995  -22.4151   32.4696  H     
24   H        28.8370  -24.1294   32.0038  H     
25   H        32.8100  -19.3481   31.0101  H     
26   H        29.1936  -18.4588   32.9752  H     
27   H        27.9567  -19.3715   31.1279  H     
28   H        31.5892  -20.2308   29.1463  H     
29   H        27.8252  -20.4975   29.0009  H     
30   H        29.0617  -19.8219   27.9656  H     
31   H        30.3951  -21.9047   28.1212  H     
32   H        28.7998  -22.1486   27.4434  H     
33   H        29.0488  -24.6724   27.8426  H     
34   H        30.6500  -24.3011   28.4607  H     
35   H        31.2664  -25.3898   30.8326  H     
36   H        30.3706  -27.4988   32.0245  H     
37   H        27.6968  -26.4667   29.1019  H     
38   H        25.3279  -23.4750   30.8968  H     
39   H        26.0255  -23.3717   32.5234  H     
40   H        26.4277  -24.7431   31.4689  H     
@<TRIPOS>BOND
     1    1    2 1
     2    1    5 1
     3    1   14 1
     4    1   15 1
     5    2    3 1
     6    3    4 1
     7    3   21 1
     8    4    5 1
     9    6    7 2
    10    6   11 1
    11    7    8 1
    12    7   12 1
    13    8    9 2
    14    9   10 1
    15   10   11 2
    16   10   13 1
    17   13   14 1
    18   15   16 1
    19   16   17 1
    20   16   20 1
    21   17   18 2
    22   18   19 1
    23   19   20 2
    24    3   22 1
    25    4   23 1
    26    4   24 1
    27    6   25 1
    28    8   26 1
    29    9   27 1
    30   11   28 1
    31   13   29 1
    32   13   30 1
    33   14   31 1
    34   14   32 1
    35   15   33 1
    36   15   34 1
    37   17   35 1
    38   18   36 1
    39   20   37 1
    40   21   38 1
    41   21   39 1
    42   21   40 1
@<TRIPOS>PROPERTY_DATA
  Total_Score	| 3.9460
  Crash		| -0.7265
  Polar		| 0.0023
  FragIndex	| 1
  FragRMSD	| 1.378

