@<TRIPOS>MOLECULE
BindingDB_50183062
 37 39 0 0 0
SMALL
NO_CHARGES


@<TRIPOS>ATOM
1    C        28.3116  -23.3951   29.5790  C     
2    O        29.3979  -23.1830   28.6636  O     
3    C        29.2064  -24.0648   27.5560  C     
4    C        27.9543  -24.8960   27.8563  C     
5    O        27.3592  -24.3106   29.0069  O     
6    C        31.5377  -19.6880   30.8506  C     
7    C        31.1299  -18.9770   31.9994  C     
8    C        29.7585  -18.8337   32.2787  C     
9    C        28.8022  -19.4231   31.4352  C     
10   C        29.1979  -20.1508   30.2858  C     
11   C        30.5786  -20.2672   29.9986  C     
12   Cl       32.2768  -18.2817   33.0308  Cl    
13   C        28.1662  -20.7081   29.3712  C     
14   C        27.5354  -22.0525   29.8414  C     
15   C        28.8797  -24.0611   30.8751  C     
16   N        29.1859  -25.4652   30.7333  N     
17   C        28.2982  -26.4783   30.7286  C     
18   C        29.0009  -27.6560   30.5095  C     
19   N        30.2972  -27.3537   30.3787  N     
20   C        30.3986  -26.0206   30.5142  C     
21   H        29.0681  -23.4715   26.6411  H     
22   H        30.0865  -24.7093   27.4474  H     
23   H        27.2551  -24.8633   27.0219  H     
24   H        28.2083  -25.9353   28.0709  H     
25   H        32.5318  -19.7880   30.6334  H     
26   H        29.4499  -18.2993   33.0971  H     
27   H        27.8081  -19.2985   31.6501  H     
28   H        30.8911  -20.7701   29.1653  H     
29   H        27.3616  -19.9675   29.2982  H     
30   H        28.5548  -20.8331   28.3553  H     
31   H        26.5750  -22.1095   29.3175  H     
32   H        27.2889  -21.9724   30.9045  H     
33   H        29.7857  -23.5328   31.1956  H     
34   H        28.1473  -23.9442   31.6754  H     
35   H        27.2853  -26.4060   30.8395  H     
36   H        28.6061  -28.5929   30.4359  H     
37   H        31.2840  -25.5135   30.4563  H     
@<TRIPOS>BOND
     1    1    2 1
     2    1    5 1
     3    1   14 1
     4    1   15 1
     5    2    3 1
     6    3    4 1
     7    4    5 1
     8    6    7 2
     9    6   11 1
    10    7    8 1
    11    7   12 1
    12    8    9 2
    13    9   10 1
    14   10   11 2
    15   10   13 1
    16   13   14 1
    17   15   16 1
    18   16   17 1
    19   16   20 1
    20   17   18 2
    21   18   19 1
    22   19   20 2
    23    3   21 1
    24    3   22 1
    25    4   23 1
    26    4   24 1
    27    6   25 1
    28    8   26 1
    29    9   27 1
    30   11   28 1
    31   13   29 1
    32   13   30 1
    33   14   31 1
    34   14   32 1
    35   15   33 1
    36   15   34 1
    37   17   35 1
    38   18   36 1
    39   20   37 1
@<TRIPOS>PROPERTY_DATA
  Total_Score	| 3.6338
  Crash		| -0.5469
  Polar		| 0.0001
  FragIndex	| 1
  FragRMSD	| 1.319

