@<TRIPOS>MOLECULE
BindingDB_50207202
 37 39 0 0 0
SMALL
NO_CHARGES


@<TRIPOS>ATOM
1    C        28.2019  -23.5077   29.5303  C     
2    O        29.3210  -23.3450   28.6447  O     
3    C        28.9384  -23.9534   27.3960  C     
4    C        27.8172  -24.9301   27.7548  C     
5    O        27.2765  -24.4463   28.9793  O     
6    C        31.5101  -19.6847   30.6045  C     
7    C        31.1014  -18.9728   31.7478  C     
8    C        29.7388  -18.9254   32.0974  C     
9    C        28.7847  -19.5786   31.3011  C     
10   C        29.1775  -20.2833   30.1369  C     
11   C        30.5522  -20.3410   29.7992  C     
12   C        28.1445  -20.8495   29.2234  C     
13   C        27.4435  -22.1463   29.7341  C     
14   C        28.7536  -24.0968   30.8710  C     
15   N        29.0683  -25.4975   30.7739  N     
16   C        28.1766  -26.4995   30.7384  C     
17   C        28.8663  -27.6739   30.4932  C     
18   N        30.1732  -27.3743   30.3562  N     
19   C        30.2798  -26.0491   30.5406  C     
20   H        28.5744  -23.1683   26.7112  H     
21   H        29.7964  -24.4722   26.9335  H     
22   H        27.0524  -24.9666   26.9653  H     
23   H        28.2273  -25.9309   27.9012  H     
24   H        32.4961  -19.7057   30.3411  H     
25   H        31.7977  -18.4774   32.3158  H     
26   H        29.4464  -18.3944   32.9150  H     
27   H        27.8013  -19.5154   31.5562  H     
28   H        30.8676  -20.8337   28.9662  H     
29   H        27.3735  -20.0796   29.0838  H     
30   H        28.5559  -21.0485   28.2287  H     
31   H        26.4927  -22.1953   29.1952  H     
32   H        27.1851  -22.0196   30.7930  H     
33   H        29.6517  -23.5460   31.1718  H     
34   H        28.0203  -23.9671   31.6709  H     
35   H        27.1630  -26.4298   30.8763  H     
36   H        28.4570  -28.6068   30.3580  H     
37   H        31.1565  -25.5326   30.4765  H     
@<TRIPOS>BOND
     1    1    2 1
     2    1    5 1
     3    1   13 1
     4    1   14 1
     5    2    3 1
     6    3    4 1
     7    4    5 1
     8    6    7 2
     9    6   11 1
    10    7    8 1
    11    8    9 2
    12    9   10 1
    13   10   11 2
    14   10   12 1
    15   12   13 1
    16   14   15 1
    17   15   16 1
    18   15   19 1
    19   16   17 2
    20   17   18 1
    21   18   19 2
    22    3   20 1
    23    3   21 1
    24    4   22 1
    25    4   23 1
    26    6   24 1
    27    7   25 1
    28    8   26 1
    29    9   27 1
    30   11   28 1
    31   12   29 1
    32   12   30 1
    33   13   31 1
    34   13   32 1
    35   14   33 1
    36   14   34 1
    37   16   35 1
    38   17   36 1
    39   19   37 1
@<TRIPOS>PROPERTY_DATA
  Total_Score	| 3.5916
  Crash		| -0.5861
  Polar		| 0.0000
  FragIndex	| 1
  FragRMSD	| 1.094

