@<TRIPOS>MOLECULE
BindingDB_50207203
 37 39 0 0 0
SMALL
NO_CHARGES


@<TRIPOS>ATOM
1    C        28.4799  -23.3334   29.5857  C     
2    O        29.0394  -23.4793   28.2640  O     
3    C        30.4533  -23.3556   28.3730  C     
4    C        30.7451  -23.5750   29.8611  C     
5    O        29.5503  -23.1819   30.5356  O     
6    C        31.4917  -19.4760   30.6631  C     
7    C        31.0663  -18.9034   31.8743  C     
8    C        29.6937  -18.8815   32.1909  C     
9    C        28.7526  -19.4825   31.3267  C     
10   C        29.1706  -20.0868   30.1147  C     
11   C        30.5447  -20.0194   29.7737  C     
12   C        28.1740  -20.7082   29.1912  C     
13   C        27.5675  -22.0625   29.6719  C     
14   C        27.6290  -24.6230   29.8606  C     
15   N        28.4053  -25.7771   30.2077  N     
16   C        28.9365  -26.0307   31.4185  C     
17   C        29.6261  -27.2277   31.3321  C     
18   N        29.4870  -27.7032   30.0855  N     
19   C        28.7337  -26.8179   29.4130  C     
20   F        31.9454  -18.3595   32.6780  F     
21   H        30.9615  -24.0921   27.7472  H     
22   H        30.7525  -22.3481   28.0570  H     
23   H        30.9648  -24.6292   30.0478  H     
24   H        31.5847  -22.9745   30.2241  H     
25   H        32.4807  -19.4765   30.4079  H     
26   H        29.3770  -18.4240   33.0519  H     
27   H        27.7565  -19.4434   31.5688  H     
28   H        30.8752  -20.3499   28.8672  H     
29   H        27.3478  -20.0010   29.0608  H     
30   H        28.5984  -20.8519   28.1964  H     
31   H        26.6751  -22.2460   29.0651  H     
32   H        27.2270  -21.9504   30.7077  H     
33   H        26.9122  -24.4536   30.6688  H     
34   H        27.0354  -24.8346   28.9625  H     
35   H        28.8673  -25.4358   32.2482  H     
36   H        30.1512  -27.6745   32.0879  H     
37   H        28.4676  -26.9178   28.4307  H     
@<TRIPOS>BOND
     1    1    2 1
     2    1    5 1
     3    1   13 1
     4    1   14 1
     5    2    3 1
     6    3    4 1
     7    4    5 1
     8    6    7 2
     9    6   11 1
    10    7    8 1
    11    7   20 1
    12    8    9 2
    13    9   10 1
    14   10   11 2
    15   10   12 1
    16   12   13 1
    17   14   15 1
    18   15   16 1
    19   15   19 1
    20   16   17 2
    21   17   18 1
    22   18   19 2
    23    3   21 1
    24    3   22 1
    25    4   23 1
    26    4   24 1
    27    6   25 1
    28    8   26 1
    29    9   27 1
    30   11   28 1
    31   12   29 1
    32   12   30 1
    33   13   31 1
    34   13   32 1
    35   14   33 1
    36   14   34 1
    37   16   35 1
    38   17   36 1
    39   19   37 1
@<TRIPOS>PROPERTY_DATA
  Total_Score	| 3.0513
  Crash		| -0.4974
  Polar		| 0.0000
  FragIndex	| 1
  FragRMSD	| 0.244

