@<TRIPOS>MOLECULE
BindingDB_50183069
 40 42 0 0 0
SMALL
NO_CHARGES


@<TRIPOS>ATOM
1    C        28.3768  -23.3149   29.7287  C     
2    O        27.7232  -24.1482   28.7552  O     
3    C        28.3890  -23.8743   27.5232  C     
4    C        29.8440  -23.6616   27.9771  C     
5    O        29.7249  -23.0704   29.2740  O     
6    C        31.5629  -19.5821   30.7390  C     
7    C        31.1694  -18.9481   31.9353  C     
8    C        29.8036  -18.8546   32.2549  C     
9    C        28.8352  -19.4136   31.3985  C     
10   C        29.2179  -20.0779   30.2075  C     
11   C        30.5933  -20.1315   29.8796  C     
12   Cl       32.3340  -18.2888   32.9707  Cl    
13   C        28.1763  -20.6824   29.3295  C     
14   C        27.5523  -21.9860   29.9118  C     
15   C        28.4437  -24.1439   31.0527  C     
16   N        28.8404  -25.5106   30.8442  N     
17   C        28.0115  -26.5648   30.7294  C     
18   C        28.7799  -27.6739   30.4070  C     
19   N        30.0635  -27.2911   30.3474  N     
20   C        30.0868  -25.9724   30.6082  C     
21   C        28.1774  -25.0370   26.5249  C     
22   H        27.9900  -22.9550   27.0756  H     
23   H        30.3761  -24.6187   28.0577  H     
24   H        30.3787  -22.9971   27.2850  H     
25   H        32.5508  -19.6437   30.4878  H     
26   H        29.5070  -18.3778   33.1114  H     
27   H        27.8474  -19.3271   31.6509  H     
28   H        30.8983  -20.5813   29.0131  H     
29   H        27.3792  -19.9477   29.1891  H     
30   H        28.5769  -20.8951   28.3359  H     
31   H        26.5827  -22.1197   29.4289  H     
32   H        27.3252  -21.8227   30.9708  H     
33   H        29.1405  -23.6740   31.7556  H     
34   H        27.4544  -24.1357   31.5305  H     
35   H        26.9923  -26.5539   30.8334  H     
36   H        28.4229  -28.6174   30.2309  H     
37   H        30.9424  -25.4112   30.6228  H     
38   H        28.5275  -25.9807   26.9644  H     
39   H        28.7278  -24.8475   25.5920  H     
40   H        27.1077  -25.1293   26.2956  H     
@<TRIPOS>BOND
     1    1    2 1
     2    1    5 1
     3    1   14 1
     4    1   15 1
     5    2    3 1
     6    3    4 1
     7    3   21 1
     8    4    5 1
     9    6    7 2
    10    6   11 1
    11    7    8 1
    12    7   12 1
    13    8    9 2
    14    9   10 1
    15   10   11 2
    16   10   13 1
    17   13   14 1
    18   15   16 1
    19   16   17 1
    20   16   20 1
    21   17   18 2
    22   18   19 1
    23   19   20 2
    24    3   22 1
    25    4   23 1
    26    4   24 1
    27    6   25 1
    28    8   26 1
    29    9   27 1
    30   11   28 1
    31   13   29 1
    32   13   30 1
    33   14   31 1
    34   14   32 1
    35   15   33 1
    36   15   34 1
    37   17   35 1
    38   18   36 1
    39   20   37 1
    40   21   38 1
    41   21   39 1
    42   21   40 1
@<TRIPOS>PROPERTY_DATA
  Total_Score	| 3.8297
  Crash		| -0.6693
  Polar		| 0.0000
  FragIndex	| 1
  FragRMSD	| 1.058

