@<TRIPOS>MOLECULE
BindingDB_50183063
 40 42 0 0 0
SMALL
NO_CHARGES


@<TRIPOS>ATOM
1    C        28.5197  -23.2901   29.4721  C     
2    O        29.6715  -23.1811   30.3348  O     
3    C        30.7685  -23.7275   29.5968  C     
4    C        30.4126  -23.3695   28.1499  C     
5    O        28.9877  -23.3455   28.1111  O     
6    C        31.5220  -19.5125   30.6799  C     
7    C        31.1200  -18.9649   31.9147  C     
8    C        29.7513  -18.9238   32.2446  C     
9    C        28.7955  -19.4775   31.3718  C     
10   C        29.1899  -20.0584   30.1427  C     
11   C        30.5627  -20.0408   29.7983  C     
12   Cl       32.2735  -18.3882   33.0127  Cl    
13   C        28.1748  -20.6462   29.2249  C     
14   C        27.6056  -22.0320   29.6488  C     
15   C        27.6675  -24.5805   29.7619  C     
16   N        28.4068  -25.7392   30.1615  N     
17   C        28.9321  -25.9539   31.3830  C     
18   C        29.5949  -27.1718   31.3434  C     
19   N        29.4372  -27.6927   30.1201  N     
20   C        28.7022  -26.8194   29.4111  C     
21   C        32.1396  -23.2106   30.0831  C     
22   H        30.7863  -24.8148   29.7005  H     
23   H        30.7958  -22.3815   27.8802  H     
24   H        30.7905  -24.1155   27.4453  H     
25   H        32.5116  -19.5342   30.4201  H     
26   H        29.4484  -18.4948   33.1217  H     
27   H        27.8059  -19.4431   31.6339  H     
28   H        30.8747  -20.4205   28.9020  H     
29   H        27.3364  -19.9429   29.1715  H     
30   H        28.5672  -20.7315   28.2083  H     
31   H        26.7035  -22.1855   29.0490  H     
32   H        27.2844  -21.9761   30.6926  H     
33   H        26.9441  -24.3734   30.5548  H     
34   H        27.0788  -24.8161   28.8682  H     
35   H        28.8802  -25.3284   32.1882  H     
36   H        30.1138  -27.5967   32.1124  H     
37   H        28.4301  -26.9603   28.4367  H     
38   H        32.1965  -22.1226   30.0108  H     
39   H        32.9340  -23.6507   29.4760  H     
40   H        32.3019  -23.5036   31.1246  H     
@<TRIPOS>BOND
     1    1    2 1
     2    1    5 1
     3    1   14 1
     4    1   15 1
     5    2    3 1
     6    3    4 1
     7    3   21 1
     8    4    5 1
     9    6    7 2
    10    6   11 1
    11    7    8 1
    12    7   12 1
    13    8    9 2
    14    9   10 1
    15   10   11 2
    16   10   13 1
    17   13   14 1
    18   15   16 1
    19   16   17 1
    20   16   20 1
    21   17   18 2
    22   18   19 1
    23   19   20 2
    24    3   22 1
    25    4   23 1
    26    4   24 1
    27    6   25 1
    28    8   26 1
    29    9   27 1
    30   11   28 1
    31   13   29 1
    32   13   30 1
    33   14   31 1
    34   14   32 1
    35   15   33 1
    36   15   34 1
    37   17   35 1
    38   18   36 1
    39   20   37 1
    40   21   38 1
    41   21   39 1
    42   21   40 1
@<TRIPOS>PROPERTY_DATA
  Total_Score	| 3.8734
  Crash		| -0.4809
  Polar		| 0.0004
  FragIndex	| 1
  FragRMSD	| 0.294

