@<TRIPOS>MOLECULE
BindingDB_50207207
 37 39 0 0 0
SMALL
NO_CHARGES


@<TRIPOS>ATOM
1    C        28.4913  -23.3163   29.5965  C     
2    O        29.2255  -23.3437   28.3656  O     
3    C        30.5870  -23.5992   28.6849  C     
4    C        30.7103  -23.4773   30.2063  C     
5    O        29.4110  -23.1580   30.6902  O     
6    C        29.6322  -18.8920   32.1161  C     
7    C        31.0073  -19.0233   31.8710  C     
8    C        31.4460  -19.6902   30.7163  C     
9    C        30.5111  -20.2359   29.8173  C     
10   C        29.1220  -20.1396   30.0675  C     
11   C        28.6967  -19.4474   31.2252  C     
12   C        28.1210  -20.7225   29.1298  C     
13   C        27.5198  -22.0893   29.5705  C     
14   C        27.6600  -24.6341   29.7453  C     
15   N        28.4253  -25.7750   30.1512  N     
16   C        28.9526  -25.9766   31.3699  C     
17   C        29.6350  -27.1806   31.3381  C     
18   N        29.4939  -27.7103   30.1166  N     
19   C        28.7483  -26.8490   29.4031  C     
20   I        32.3541  -18.2154   33.1899  I     
21   H        30.8604  -24.6016   28.3473  H     
22   H        31.2178  -22.8681   28.1781  H     
23   H        31.0533  -24.4129   30.6505  H     
24   H        31.4102  -22.6876   30.4795  H     
25   H        29.3138  -18.3852   32.9424  H     
26   H        32.4469  -19.7803   30.5283  H     
27   H        30.8566  -20.7167   28.9834  H     
28   H        27.6998  -19.3386   31.4269  H     
29   H        27.2920  -20.0068   29.0387  H     
30   H        28.5443  -20.8337   28.1210  H     
31   H        26.6999  -22.3065   28.8792  H     
32   H        27.0767  -21.9780   30.5658  H     
33   H        26.8557  -24.4849   30.4753  H     
34   H        27.1761  -24.8492   28.7858  H     
35   H        28.8833  -25.3478   32.1732  H     
36   H        30.1529  -27.5984   32.1120  H     
37   H        28.4824  -26.9905   28.4262  H     
@<TRIPOS>BOND
     1    1    2 1
     2    1    5 1
     3    1   13 1
     4    1   14 1
     5    2    3 1
     6    3    4 1
     7    4    5 1
     8    6    7 2
     9    6   11 1
    10    7    8 1
    11    7   20 1
    12    8    9 2
    13    9   10 1
    14   10   11 2
    15   10   12 1
    16   12   13 1
    17   14   15 1
    18   15   16 1
    19   15   19 1
    20   16   17 2
    21   17   18 1
    22   18   19 2
    23    3   21 1
    24    3   22 1
    25    4   23 1
    26    4   24 1
    27    6   25 1
    28    8   26 1
    29    9   27 1
    30   11   28 1
    31   12   29 1
    32   12   30 1
    33   13   31 1
    34   13   32 1
    35   14   33 1
    36   14   34 1
    37   16   35 1
    38   17   36 1
    39   19   37 1
@<TRIPOS>PROPERTY_DATA
  Total_Score	| 3.3795
  Crash		| -0.6961
  Polar		| 0.0000
  FragIndex	| 1
  FragRMSD	| 0.167

