@<TRIPOS>MOLECULE
BindingDB_31680
 41 43 0 0 0
SMALL
NO_CHARGES


@<TRIPOS>ATOM
1    C        30.4658  -19.5602   29.6402  C     
2    C        31.4921  -19.1538   30.5148  C     
3    C        31.3199  -19.2653   31.9067  C     
4    C        30.1196  -19.7900   32.4162  C     
5    C        29.0939  -20.1953   31.5422  C     
6    C        29.2571  -20.1041   30.1399  C     
7    Cl       32.5435  -18.7572   32.9586  Cl    
8    C        28.1714  -20.5468   29.2193  C     
9    C        27.7089  -22.0306   29.3756  C     
10   C        28.8082  -23.1626   29.3673  C     
11   C        29.2868  -24.0534   27.2988  C     
12   O        28.4157  -24.1709   28.4196  O     
13   O        30.0708  -22.6190   28.9247  O     
14   C        30.5690  -23.4698   27.8942  C     
15   C        29.0138  -23.8497   30.7707  C     
16   N        29.2048  -25.2767   30.7008  N     
17   C        31.4718  -22.7041   26.8972  C     
18   C        30.3737  -25.9365   30.5627  C     
19   C        28.2257  -26.2020   30.6686  C     
20   C        28.8285  -27.4368   30.4962  C     
21   N        30.1537  -27.2577   30.4344  N     
22   O        30.7428  -21.7234   26.1474  O     
23   H        30.6110  -19.4614   28.6305  H     
24   H        32.3598  -18.7689   30.1282  H     
25   H        29.9821  -19.8706   33.4244  H     
26   H        28.2282  -20.5632   31.9352  H     
27   H        27.3002  -19.9054   29.4016  H     
28   H        28.4607  -20.3904   28.1757  H     
29   H        27.1047  -22.1075   30.2837  H     
30   H        27.0140  -22.2144   28.5436  H     
31   H        29.4619  -25.0312   26.8427  H     
32   H        28.8273  -23.3817   26.5654  H     
33   H        31.1620  -24.2637   28.3554  H     
34   H        29.8747  -23.3967   31.2753  H     
35   H        28.1564  -23.6690   31.4250  H     
36   H        32.2737  -22.2056   27.4461  H     
37   H        31.9239  -23.4174   26.1989  H     
38   H        31.2981  -25.5040   30.5406  H     
39   H        27.2204  -26.0282   30.7275  H     
40   H        28.3410  -28.3291   30.4048  H     
41   H        31.3566  -21.4079   25.4445  H     
@<TRIPOS>BOND
     1    1    2 1
     2    1    6 2
     3    2    3 2
     4    3    4 1
     5    3    7 1
     6    4    5 2
     7    5    6 1
     8    6    8 1
     9    8    9 1
    10   10    9 1
    11   10   12 1
    12   10   13 1
    13   10   15 1
    14   11   12 1
    15   11   14 1
    16   13   14 1
    17   14   17 1
    18   15   16 1
    19   16   18 1
    20   16   19 1
    21   17   22 1
    22   18   21 2
    23   19   20 2
    24   20   21 1
    25    1   23 1
    26    2   24 1
    27    4   25 1
    28    5   26 1
    29    8   27 1
    30    8   28 1
    31    9   29 1
    32    9   30 1
    33   11   31 1
    34   11   32 1
    35   14   33 1
    36   15   34 1
    37   15   35 1
    38   17   36 1
    39   17   37 1
    40   18   38 1
    41   19   39 1
    42   20   40 1
    43   22   41 1
@<TRIPOS>PROPERTY_DATA
  Total_Score	| 4.0677
  Crash		| -0.6671
  Polar		| 1.9342
  FragIndex	| 1
  FragRMSD	| 1.168

