@<TRIPOS>MOLECULE
BindingDB_31687
 44 46 0 0 0
SMALL
NO_CHARGES


@<TRIPOS>ATOM
1    C        28.8117  -19.4840   31.3431  C     
2    C        29.7632  -18.9364   32.2257  C     
3    C        31.1347  -18.9743   31.9024  C     
4    C        31.5413  -19.5102   30.6645  C     
5    C        30.5850  -20.0168   29.7643  C     
6    C        29.2124  -20.0493   30.1072  C     
7    Cl       32.2808  -18.4130   33.0177  Cl    
8    C        28.2035  -20.6287   29.1730  C     
9    C        27.6313  -22.0159   29.5923  C     
10   C        28.5311  -23.2780   29.3755  C     
11   C        30.3459  -23.3095   27.9520  C     
12   O        28.9223  -23.3448   27.9922  O     
13   O        29.7266  -23.1678   30.1745  O     
14   C        30.7916  -23.6831   29.3709  C     
15   C        27.6963  -24.5649   29.7247  C     
16   N        28.4558  -25.7179   30.1125  N     
17   C        32.1853  -23.1618   29.8107  C     
18   C        28.7740  -26.7860   29.3560  C     
19   C        28.9603  -25.9452   31.3405  C     
20   C        29.6270  -27.1626   31.3031  C     
21   N        29.4962  -27.6695   30.0676  N     
22   O        33.2666  -23.9584   29.2774  O     
23   C        33.9418  -23.4752   28.1024  C     
24   H        27.8211  -19.4684   31.6030  H     
25   H        29.4528  -18.5252   33.1077  H     
26   H        32.5347  -19.5412   30.4172  H     
27   H        30.9030  -20.3782   28.8591  H     
28   H        27.3672  -19.9253   29.1163  H     
29   H        28.6043  -20.7108   28.1585  H     
30   H        27.3389  -21.9646   30.6461  H     
31   H        26.7081  -22.1573   29.0204  H     
32   H        30.7097  -24.0289   27.2119  H     
33   H        30.6661  -22.2965   27.6864  H     
34   H        30.8098  -24.7694   29.4630  H     
35   H        27.0098  -24.3491   30.5471  H     
36   H        27.0673  -24.8192   28.8672  H     
37   H        32.2984  -22.0974   29.5765  H     
38   H        32.2486  -23.2617   30.8981  H     
39   H        28.5166  -26.9188   28.3791  H     
40   H        28.8710  -25.3395   32.1638  H     
41   H        30.1240  -27.6039   32.0824  H     
42   H        33.2659  -23.3878   27.2499  H     
43   H        34.7227  -24.1953   27.8449  H     
44   H        34.4201  -22.5111   28.2896  H     
@<TRIPOS>BOND
     1    1    2 1
     2    1    6 2
     3    2    3 2
     4    3    4 1
     5    3    7 1
     6    4    5 2
     7    5    6 1
     8    6    8 1
     9    8    9 1
    10   10    9 1
    11   10   12 1
    12   10   13 1
    13   10   15 1
    14   11   12 1
    15   11   14 1
    16   13   14 1
    17   14   17 1
    18   15   16 1
    19   16   18 1
    20   16   19 1
    21   17   22 1
    22   18   21 2
    23   19   20 2
    24   20   21 1
    25   22   23 1
    26    1   24 1
    27    2   25 1
    28    4   26 1
    29    5   27 1
    30    8   28 1
    31    8   29 1
    32    9   30 1
    33    9   31 1
    34   11   32 1
    35   11   33 1
    36   14   34 1
    37   15   35 1
    38   15   36 1
    39   17   37 1
    40   17   38 1
    41   18   39 1
    42   19   40 1
    43   20   41 1
    44   23   42 1
    45   23   43 1
    46   23   44 1
@<TRIPOS>PROPERTY_DATA
  Total_Score	| 4.4336
  Crash		| -0.5390
  Polar		| 0.0007
  FragIndex	| 1
  FragRMSD	| 0.356

