@<TRIPOS>MOLECULE
BindingDB_50252800
 37 39 0 0 0
SMALL
NO_CHARGES


@<TRIPOS>ATOM
1    C        28.5349  -23.2849   29.6108  C     
2    O        29.4949  -23.1079   30.6705  O     
3    C        30.7593  -23.5016   30.1372  C     
4    C        30.6220  -23.2857   28.6287  C     
5    O        29.2297  -23.4052   28.3544  O     
6    C        31.5308  -19.5244   30.6548  C     
7    C        31.1192  -19.0025   31.8954  C     
8    C        29.7499  -18.9558   32.2097  C     
9    C        28.8059  -19.5079   31.3246  C     
10   C        29.2070  -20.0721   30.0886  C     
11   C        30.5732  -19.9983   29.7369  C     
12   Cl       32.2609  -18.3548   32.9628  Cl    
13   C        28.1961  -20.6676   29.1650  C     
14   C        27.5918  -22.0359   29.6004  C     
15   C        27.6812  -24.5879   29.7990  C     
16   N        28.4325  -25.7490   30.1780  N     
17   C        28.9524  -25.9774   31.3980  C     
18   C        29.6146  -27.1932   31.3508  C     
19   N        29.4590  -27.7085   30.1228  N     
20   C        28.7322  -26.8227   29.4192  C     
21   H        31.5706  -22.8972   30.5549  H     
22   H        30.9495  -24.5548   30.3571  H     
23   H        30.9664  -22.3040   28.3317  H     
24   H        31.1868  -24.0330   28.0693  H     
25   H        32.5245  -19.5386   30.4062  H     
26   H        29.4374  -18.5085   33.0712  H     
27   H        27.8190  -19.4747   31.5771  H     
28   H        30.8846  -20.2818   28.8095  H     
29   H        27.3740  -19.9523   29.0795  H     
30   H        28.6091  -20.7838   28.1586  H     
31   H        26.7609  -22.2445   28.9201  H     
32   H        27.1556  -21.9220   30.5964  H     
33   H        26.9050  -24.4285   30.5530  H     
34   H        27.1569  -24.7938   28.8611  H     
35   H        28.8907  -25.3590   32.2091  H     
36   H        30.1270  -27.6254   32.1220  H     
37   H        28.4573  -26.9593   28.4427  H     
@<TRIPOS>BOND
     1    1    2 1
     2    1    5 1
     3    1   14 1
     4    1   15 1
     5    2    3 1
     6    3    4 1
     7    4    5 1
     8    6    7 2
     9    6   11 1
    10    7    8 1
    11    7   12 1
    12    8    9 2
    13    9   10 1
    14   10   11 2
    15   10   13 1
    16   13   14 1
    17   15   16 1
    18   16   17 1
    19   16   20 1
    20   17   18 2
    21   18   19 1
    22   19   20 2
    23    3   21 1
    24    3   22 1
    25    4   23 1
    26    4   24 1
    27    6   25 1
    28    8   26 1
    29    9   27 1
    30   11   28 1
    31   13   29 1
    32   13   30 1
    33   14   31 1
    34   14   32 1
    35   15   33 1
    36   15   34 1
    37   17   35 1
    38   18   36 1
    39   20   37 1
@<TRIPOS>PROPERTY_DATA
  Total_Score	| 3.2808
  Crash		| -0.5467
  Polar		| 0.0000
  FragIndex	| 1
  FragRMSD	| 0.173

