@<TRIPOS>MOLECULE
BindingDB_31684
 40 42 0 0 0
SMALL
NO_CHARGES


@<TRIPOS>ATOM
1    C        28.8114  -19.4608   31.3695  C     
2    C        29.7448  -18.8935   32.2526  C     
3    C        31.1184  -18.9211   31.9458  C     
4    C        31.5482  -19.4759   30.7263  C     
5    C        30.6136  -20.0436   29.8444  C     
6    C        29.2340  -20.0638   30.1600  C     
7    Cl       32.2450  -18.2621   33.0254  Cl    
8    C        28.2283  -20.6617   29.2313  C     
9    C        27.6498  -22.0407   29.6634  C     
10   C        28.5049  -23.3197   29.3809  C     
11   C        30.2803  -23.2251   27.9192  C     
12   O        28.8591  -23.3471   27.9829  O     
13   O        29.7218  -23.2873   30.1561  O     
14   C        30.7657  -23.7322   29.2830  C     
15   C        27.6435  -24.5869   29.7090  C     
16   N        28.4007  -25.7297   30.1219  N     
17   C        32.1564  -23.2360   29.7312  C     
18   C        28.7257  -26.8085   29.3781  C     
19   C        28.9106  -25.9242   31.3492  C     
20   C        29.6026  -27.1217   31.3239  C     
21   N        29.4791  -27.6560   30.1019  N     
22   Cl       33.3211  -23.2318   28.3984  Cl    
23   H        27.8167  -19.4272   31.6099  H     
24   H        29.4243  -18.4489   33.1136  H     
25   H        32.5407  -19.4851   30.4792  H     
26   H        30.9431  -20.4191   28.9520  H     
27   H        27.3939  -19.9556   29.1701  H     
28   H        28.6281  -20.7510   28.2165  H     
29   H        27.4224  -22.0037   30.7312  H     
30   H        26.6972  -22.1611   29.1415  H     
31   H        30.6672  -23.8349   27.0951  H     
32   H        30.5525  -22.1780   27.7495  H     
33   H        30.7898  -24.8204   29.2551  H     
34   H        26.9220  -24.3532   30.5006  H     
35   H        27.0567  -24.8443   28.8225  H     
36   H        32.0792  -22.2145   30.1422  H     
37   H        32.5318  -23.9074   30.5129  H     
38   H        28.4779  -26.9543   28.3979  H     
39   H        28.8298  -25.2929   32.1487  H     
40   H        30.1169  -27.5308   32.1059  H     
@<TRIPOS>BOND
     1    1    2 1
     2    1    6 2
     3    2    3 2
     4    3    4 1
     5    3    7 1
     6    4    5 2
     7    5    6 1
     8    6    8 1
     9    8    9 1
    10   10    9 1
    11   10   12 1
    12   10   13 1
    13   10   15 1
    14   11   12 1
    15   11   14 1
    16   13   14 1
    17   14   17 1
    18   15   16 1
    19   16   18 1
    20   16   19 1
    21   17   22 1
    22   18   21 2
    23   19   20 2
    24   20   21 1
    25    1   23 1
    26    2   24 1
    27    4   25 1
    28    5   26 1
    29    8   27 1
    30    8   28 1
    31    9   29 1
    32    9   30 1
    33   11   31 1
    34   11   32 1
    35   14   33 1
    36   15   34 1
    37   15   35 1
    38   17   36 1
    39   17   37 1
    40   18   38 1
    41   19   39 1
    42   20   40 1
@<TRIPOS>PROPERTY_DATA
  Total_Score	| 3.6859
  Crash		| -0.6081
  Polar		| 0.0008
  FragIndex	| 1
  FragRMSD	| 0.378

