@<TRIPOS>MOLECULE
BindingDB_50183064
 40 42 0 0 0
SMALL
NO_CHARGES


@<TRIPOS>ATOM
1    C        28.4211  -23.3969   29.5194  C     
2    O        27.6621  -24.3843   28.7923  O     
3    C        28.4310  -24.8259   27.6682  C     
4    C        29.7951  -24.1197   27.7864  C     
5    O        29.6247  -23.1135   28.7809  O     
6    C        31.5179  -19.6672   30.7500  C     
7    C        31.0964  -19.0393   31.9388  C     
8    C        29.7229  -18.9747   32.2382  C     
9    C        28.7809  -19.5594   31.3701  C     
10   C        29.1917  -20.1973   30.1756  C     
11   C        30.5752  -20.2416   29.8770  C     
12   Cl       32.2284  -18.3562   32.9974  Cl    
13   C        28.1855  -20.7325   29.2194  C     
14   C        27.5486  -22.0880   29.6475  C     
15   C        28.8148  -24.0137   30.9056  C     
16   N        29.1398  -25.4154   30.8325  N     
17   C        28.2554  -26.4295   30.7796  C     
18   C        28.9680  -27.6032   30.5796  C     
19   N        30.2702  -27.2958   30.5323  N     
20   C        30.3632  -25.9636   30.6950  C     
21   C        27.6624  -24.5290   26.3614  C     
22   H        28.5753  -25.9074   27.7346  H     
23   H        30.5760  -24.8230   28.0957  H     
24   H        30.1128  -23.6463   26.8511  H     
25   H        32.5172  -19.7047   30.5138  H     
26   H        29.4042  -18.4988   33.0832  H     
27   H        27.7864  -19.4869   31.5938  H     
28   H        30.9106  -20.6764   29.0128  H     
29   H        27.3865  -19.9918   29.1275  H     
30   H        28.6083  -20.8316   28.2145  H     
31   H        26.6649  -22.2086   29.0149  H     
32   H        27.1657  -21.9757   30.6664  H     
33   H        29.6586  -23.4487   31.3133  H     
34   H        27.9934  -23.9050   31.6181  H     
35   H        27.2369  -26.3578   30.8283  H     
36   H        28.5674  -28.5364   30.4484  H     
37   H        31.2431  -25.4467   30.6928  H     
38   H        26.7148  -25.0723   26.3639  H     
39   H        28.2360  -24.8525   25.4871  H     
40   H        27.4567  -23.4596   26.2715  H     
@<TRIPOS>BOND
     1    1    2 1
     2    1    5 1
     3    1   14 1
     4    1   15 1
     5    2    3 1
     6    3    4 1
     7    3   21 1
     8    4    5 1
     9    6    7 2
    10    6   11 1
    11    7    8 1
    12    7   12 1
    13    8    9 2
    14    9   10 1
    15   10   11 2
    16   10   13 1
    17   13   14 1
    18   15   16 1
    19   16   17 1
    20   16   20 1
    21   17   18 2
    22   18   19 1
    23   19   20 2
    24    3   22 1
    25    4   23 1
    26    4   24 1
    27    6   25 1
    28    8   26 1
    29    9   27 1
    30   11   28 1
    31   13   29 1
    32   13   30 1
    33   14   31 1
    34   14   32 1
    35   15   33 1
    36   15   34 1
    37   17   35 1
    38   18   36 1
    39   20   37 1
    40   21   38 1
    41   21   39 1
    42   21   40 1
@<TRIPOS>PROPERTY_DATA
  Total_Score	| 3.8982
  Crash		| -0.6847
  Polar		| 0.0001
  FragIndex	| 1
  FragRMSD	| 1.100

