@<TRIPOS>MOLECULE
BindingDB_31679
 40 42 0 0 0
SMALL
NO_CHARGES


@<TRIPOS>ATOM
1    C        28.7902  -19.4022   31.3353  C     
2    C        29.7634  -18.8771   32.2059  C     
3    C        31.1308  -18.9927   31.8922  C     
4    C        31.5167  -19.5795   30.6723  C     
5    C        30.5430  -20.1133   29.8069  C     
6    C        29.1682  -20.0615   30.1402  C     
7    Cl       32.3016  -18.4237   32.9766  Cl    
8    C        28.1470  -20.6568   29.2342  C     
9    C        27.5796  -22.0409   29.6616  C     
10   C        28.5102  -23.2906   29.5118  C     
11   C        30.4715  -23.5942   28.3219  C     
12   O        29.0718  -23.3206   28.1870  O     
13   O        29.6001  -23.1650   30.4441  O     
14   C        30.7312  -23.7724   29.8243  C     
15   C        27.6672  -24.5828   29.8111  C     
16   N        28.4213  -25.7366   30.2107  N     
17   C        32.0706  -23.2080   30.3532  C     
18   C        28.7650  -26.7799   29.4264  C     
19   C        28.9191  -25.9891   31.4339  C     
20   C        29.6221  -27.1824   31.3603  C     
21   N        29.5115  -27.6600   30.1139  N     
22   H        27.8033  -19.3106   31.5877  H     
23   H        29.4723  -18.4193   33.0728  H     
24   H        32.5063  -19.6542   30.4250  H     
25   H        30.8498  -20.5630   28.9412  H     
26   H        27.3110  -19.9541   29.1718  H     
27   H        28.5401  -20.7597   28.2172  H     
28   H        27.2392  -21.9749   30.6995  H     
29   H        26.6873  -22.2037   29.0475  H     
30   H        30.7329  -24.4979   27.7668  H     
31   H        31.0491  -22.7639   27.9166  H     
32   H        30.7247  -24.8358   30.0569  H     
33   H        26.9379  -24.3372   30.5900  H     
34   H        27.0885  -24.8702   28.9276  H     
35   H        32.8854  -23.8759   30.0723  H     
36   H        32.0449  -23.1330   31.4411  H     
37   H        32.2769  -22.2253   29.9419  H     
38   H        28.5288  -26.8834   28.4377  H     
39   H        28.8596  -25.3793   32.2512  H     
40   H        30.1586  -27.6159   32.1143  H     
@<TRIPOS>BOND
     1    1    2 1
     2    1    6 2
     3    2    3 2
     4    3    4 1
     5    3    7 1
     6    4    5 2
     7    5    6 1
     8    6    8 1
     9    8    9 1
    10   10    9 1
    11   10   12 1
    12   10   13 1
    13   10   15 1
    14   11   12 1
    15   11   14 1
    16   13   14 1
    17   14   17 1
    18   15   16 1
    19   16   18 1
    20   16   19 1
    21   18   21 2
    22   19   20 2
    23   20   21 1
    24    1   22 1
    25    2   23 1
    26    4   24 1
    27    5   25 1
    28    8   26 1
    29    8   27 1
    30    9   28 1
    31    9   29 1
    32   11   30 1
    33   11   31 1
    34   14   32 1
    35   15   33 1
    36   15   34 1
    37   17   35 1
    38   17   36 1
    39   17   37 1
    40   18   38 1
    41   19   39 1
    42   20   40 1
@<TRIPOS>PROPERTY_DATA
  Total_Score	| 3.8559
  Crash		| -0.5368
  Polar		| 0.0003
  FragIndex	| 1
  FragRMSD	| 0.248

