@<TRIPOS>MOLECULE
BindingDB_31686
 43 45 0 0 0
SMALL
NO_CHARGES


@<TRIPOS>ATOM
1    C        28.7913  -19.4752   31.3388  C     
2    C        29.7548  -18.9335   32.2088  C     
3    C        31.1228  -18.9798   31.8744  C     
4    C        31.5164  -19.5211   30.6341  C     
5    C        30.5460  -20.0283   29.7483  C     
6    C        29.1753  -20.0507   30.1054  C     
7    Cl       32.2851  -18.3973   32.9605  Cl    
8    C        28.1540  -20.6224   29.1813  C     
9    C        27.5853  -22.0099   29.5958  C     
10   C        28.5077  -23.2639   29.4206  C     
11   C        30.3585  -23.2998   28.0443  C     
12   O        28.9339  -23.3516   28.0481  O     
13   O        29.6849  -23.1267   30.2483  O     
14   C        30.7710  -23.6497   29.4773  C     
15   C        27.6820  -24.5572   29.7616  C     
16   N        28.4517  -25.7012   30.1534  N     
17   C        32.1568  -23.1161   29.9077  C     
18   C        28.7885  -26.7637   29.3934  C     
19   C        28.9592  -25.9227   31.3803  C     
20   C        29.6465  -27.1266   31.3379  C     
21   N        29.5280  -27.6343   30.1031  N     
22   N        32.3832  -23.3979   31.3296  N     
23   H        27.8050  -19.4424   31.6078  H     
24   H        29.4598  -18.5065   33.0911  H     
25   H        32.5032  -19.5537   30.3709  H     
26   H        30.8516  -20.3926   28.8416  H     
27   H        27.3184  -19.9182   29.1425  H     
28   H        28.5389  -20.6977   28.1613  H     
29   H        27.2606  -21.9561   30.6385  H     
30   H        26.6870  -22.1719   28.9903  H     
31   H        30.7591  -24.0158   27.3240  H     
32   H        30.6752  -22.2890   27.7726  H     
33   H        30.8010  -24.7372   29.5822  H     
34   H        26.9862  -24.3437   30.5753  H     
35   H        27.0684  -24.8196   28.8944  H     
36   H        32.9364  -23.6196   29.3273  H     
37   H        32.2325  -22.0399   29.7392  H     
38   H        28.5404  -26.8961   28.4107  H     
39   H        28.8698  -25.3138   32.1980  H     
40   H        30.1521  -27.5587   32.1139  H     
41   H        31.6593  -22.9471   31.8900  H     
42   H        33.2951  -23.0431   31.6133  H     
43   H        32.3530  -24.4078   31.4781  H     
@<TRIPOS>BOND
     1    1    2 1
     2    1    6 2
     3    2    3 2
     4    3    4 1
     5    3    7 1
     6    4    5 2
     7    5    6 1
     8    6    8 1
     9    8    9 1
    10   10    9 1
    11   10   12 1
    12   10   13 1
    13   10   15 1
    14   11   12 1
    15   11   14 1
    16   13   14 1
    17   14   17 1
    18   15   16 1
    19   16   18 1
    20   16   19 1
    21   17   22 1
    22   18   21 2
    23   19   20 2
    24   20   21 1
    25    1   23 1
    26    2   24 1
    27    4   25 1
    28    5   26 1
    29    8   27 1
    30    8   28 1
    31    9   29 1
    32    9   30 1
    33   11   31 1
    34   11   32 1
    35   14   33 1
    36   15   34 1
    37   15   35 1
    38   17   36 1
    39   17   37 1
    40   18   38 1
    41   19   39 1
    42   20   40 1
    43   22   41 1
    44   22   42 1
    45   22   43 1
@<TRIPOS>PROPERTY_DATA
  Total_Score	| 4.3123
  Crash		| -0.8347
  Polar		| 0.4806
  FragIndex	| 1
  FragRMSD	| 0.317

