@<TRIPOS>MOLECULE
BindingDB_91948
 55 58 0 0 0
SMALL
NO_CHARGES


@<TRIPOS>ATOM
1    C        10.5068   -5.3866   12.9330  C     
2    O        11.4104   -6.1703   13.7319  O     
3    C        12.4542   -6.7222   13.0333  C     
4    C        12.7095   -8.1212   13.0859  C     
5    N        11.9132   -8.9924   13.7790  N     
6    O        12.1958  -10.2635   13.9018  O     
7    O        10.8996   -8.6665   14.3327  O     
8    C        13.8389   -8.6171   12.3874  C     
9    C        14.6838   -7.7634   11.6625  C     
10   C        14.4431   -6.3729   11.6313  C     
11   C        15.2979   -5.5020   10.8992  C     
12   C        16.7019   -5.6118   10.9826  C     
13   C        17.5602   -4.7713   10.2377  C     
14   C        17.0060   -3.7892    9.3659  C     
15   C        17.7620   -2.8937    8.6000  C     
16   N        19.0658   -2.8465    8.4197  N     
17   C        20.0887   -3.6056    8.8758  C     
18   C        20.0047   -4.6084    9.8690  C     
19   N        18.8695   -5.0450   10.4592  N     
20   C        21.1875   -5.2529   10.2931  C     
21   C        22.4055   -5.0228    9.6358  C     
22   C        22.4823   -4.0901    8.5806  C     
23   C        23.7247   -3.9208    7.7875  C     
24   C        24.2243   -5.1325    7.1200  C     
25   N        23.5475   -5.9252    6.2539  N     
26   C        24.2399   -7.0220    5.5952  C     
27   C        22.1385   -5.7505    5.9693  C     
28   O        25.4209   -5.3431    7.3066  O     
29   C        21.3341   -3.3264    8.2774  C     
30   O        17.2104   -2.0035    7.9696  O     
31   C        15.5912   -3.7016    9.2849  C     
32   C        14.7549   -4.5373   10.0307  C     
33   C        13.3263   -5.8683   12.3302  C     
34   H         9.6096   -5.1860   13.5236  H     
35   H        10.9670   -4.4313   12.6749  H     
36   H        10.1990   -5.9022   12.0171  H     
37   H        14.0542   -9.6137   12.3838  H     
38   H        15.4694   -8.1695   11.1473  H     
39   H        17.1026   -6.3234   11.6018  H     
40   H        19.3499   -2.1110    7.8512  H     
41   H        19.0177   -5.7578   11.1029  H     
42   H        21.1593   -5.9382   11.0552  H     
43   H        23.2255   -5.5738    9.8998  H     
44   H        24.4792   -3.5065    8.4706  H     
45   H        23.5830   -3.1724    7.0032  H     
46   H        23.5911   -7.6853    5.0198  H     
47   H        24.9907   -6.6215    4.9072  H     
48   H        24.7439   -7.6468    6.3369  H     
49   H        21.5665   -5.9555    6.8728  H     
50   H        21.7591   -6.4272    5.2001  H     
51   H        21.9466   -4.7292    5.6273  H     
52   H        21.3910   -2.5838    7.5744  H     
53   H        15.1319   -3.0313    8.6613  H     
54   H        13.7398   -4.4756    9.8874  H     
55   H        13.1431   -4.8597   12.3398  H     
@<TRIPOS>BOND
     1    1    2 1
     2    2    3 1
     3    3    4 ar
     4    4    5 am
     5    5    6 1
     6    5    7 2
     7    4    8 ar
     8    8    9 ar
     9    9   10 ar
    10   10   11 1
    11   11   12 ar
    12   12   13 ar
    13   13   14 ar
    14   14   15 1
    15   15   16 1
    16   16   17 1
    17   17   18 ar
    18   18   19 1
    19   13   19 1
    20   18   20 ar
    21   20   21 ar
    22   21   22 ar
    23   22   23 1
    24   23   24 1
    25   24   25 am
    26   25   26 1
    27   25   27 1
    28   24   28 2
    29   22   29 ar
    30   17   29 ar
    31   15   30 2
    32   14   31 ar
    33   31   32 ar
    34   11   32 ar
    35   10   33 ar
    36    3   33 ar
    37    1   34 1
    38    1   35 1
    39    1   36 1
    40    8   37 1
    41    9   38 1
    42   12   39 1
    43   16   40 1
    44   19   41 1
    45   20   42 1
    46   21   43 1
    47   23   44 1
    48   23   45 1
    49   26   46 1
    50   26   47 1
    51   26   48 1
    52   27   49 1
    53   27   50 1
    54   27   51 1
    55   29   52 1
    56   31   53 1
    57   32   54 1
    58   33   55 1
@<TRIPOS>PROPERTY_DATA
  Total_Score	| 7.1539
  Crash		| -0.9668
  Polar		| 2.6097
  FragIndex	| 1
  FragRMSD	| 0.560

