@<TRIPOS>MOLECULE
BindingDB_50218722
 42 45 0 0 0
SMALL
NO_CHARGES


@<TRIPOS>ATOM
1    C        14.8181   -4.5509    9.9620  C     
2    C        15.3394   -5.4805   10.8817  C     
3    C        16.7404   -5.5459   11.0209  C     
4    C        15.6765   -3.7214    9.2232  C     
5    N        18.9271   -5.0629   10.4402  N     
6    C        17.6238   -4.7573   10.2421  C     
7    C        17.0905   -3.7942    9.3396  C     
8    C        17.8706   -2.9232    8.5641  C     
9    N        19.1706   -2.9307    8.3455  N     
10   C        20.1748   -3.7196    8.7839  C     
11   C        20.0674   -4.6994    9.7982  C     
12   C        21.2317   -5.3908   10.2081  C     
13   C        22.4798   -5.1288    9.6109  C     
14   C        22.5801   -4.1639    8.5975  C     
15   C        21.4350   -3.4595    8.1922  C     
16   O        17.3347   -1.9959    7.9707  O     
17   C        14.4747   -6.3498   11.6107  C     
18   C        14.7795   -7.7275   11.7357  C     
19   C        13.9398   -8.5894   12.4594  C     
20   C        12.7401   -8.1256   13.0581  C     
21   C        12.4060   -6.7448   12.9012  C     
22   C        13.2855   -5.8767   12.2165  C     
23   O        11.2698   -6.2360   13.4878  O     
24   C        10.3580   -5.5070   12.6420  C     
25   N        11.9586   -9.0002   13.7642  N     
26   O        10.8954   -8.7081   14.2499  O     
27   O        12.3016  -10.2455   13.9708  O     
28   H        13.8086   -4.4897    9.8031  H     
29   H        17.1311   -6.2157   11.6863  H     
30   H        15.2358   -3.0746    8.5658  H     
31   H        19.0782   -5.7358   11.1246  H     
32   H        19.4680   -2.2219    7.7520  H     
33   H        21.1841   -6.1027   10.9445  H     
34   H        23.3107   -5.6455    9.9159  H     
35   H        23.4864   -3.9742    8.1576  H     
36   H        21.5307   -2.7453    7.4649  H     
37   H        15.6160   -8.1234   11.2989  H     
38   H        14.2160   -9.5784   12.5284  H     
39   H        13.0668   -4.8762   12.1681  H     
40   H        10.6507   -4.4515   12.6018  H     
41   H         9.3634   -5.5711   13.0888  H     
42   H        10.3001   -5.8997   11.6214  H     
@<TRIPOS>BOND
     1    1    2 2
     2    1    4 1
     3    2    3 1
     4    2   17 1
     5    3    6 2
     6    4    7 2
     7    5    6 1
     8    5   11 1
     9    6    7 1
    10    7    8 1
    11    8    9 1
    12    8   16 2
    13    9   10 1
    14   10   11 2
    15   10   15 1
    16   11   12 1
    17   12   13 2
    18   13   14 1
    19   14   15 2
    20   17   18 2
    21   17   22 1
    22   18   19 1
    23   19   20 2
    24   20   21 1
    25   20   25 am
    26   21   22 2
    27   21   23 1
    28   23   24 1
    29   25   26 2
    30   25   27 1
    31    1   28 1
    32    3   29 1
    33    4   30 1
    34    5   31 1
    35    9   32 1
    36   12   33 1
    37   13   34 1
    38   14   35 1
    39   15   36 1
    40   18   37 1
    41   19   38 1
    42   22   39 1
    43   24   40 1
    44   24   41 1
    45   24   42 1
@<TRIPOS>PROPERTY_DATA
  Total_Score	| 7.2867
  Crash		| -0.6041
  Polar		| 2.6777
  FragIndex	| 1
  FragRMSD	| 0.598

