@<TRIPOS>MOLECULE
BindingDB_91967
 45 48 0 0 0
SMALL
NO_CHARGES


@<TRIPOS>ATOM
1    C        10.4359   -5.3913   13.1590  C     
2    O        11.3840   -6.2221   13.8563  O     
3    C        12.3580   -6.8344   13.0996  C     
4    C        12.5750   -8.2386   13.1647  C     
5    N        11.8006   -9.0653   13.9297  N     
6    O        10.7575   -8.6527   14.5852  O     
7    O        12.0041  -10.2491   14.0263  O     
8    C        13.6398   -8.7885   12.4021  C     
9    C        14.4518   -7.9821   11.5895  C     
10   C        14.2586   -6.5871   11.5569  C     
11   C        15.1085   -5.7467   10.7953  C     
12   C        16.5055   -5.8176   10.9520  C     
13   C        17.4018   -4.9603   10.2570  C     
14   C        16.8396   -3.9501    9.4150  C     
15   C        17.5925   -2.8948    8.8831  C     
16   N        18.8851   -2.8790    8.6140  N     
17   C        19.7380   -3.9234    8.5676  C     
18   C        19.6416   -5.0673    9.3962  C     
19   N        18.7541   -5.1364   10.4525  N     
20   C        19.2780   -5.5827   11.7318  C     
21   C        20.5290   -6.1494    9.1497  C     
22   C        21.5138   -6.0755    8.1511  C     
23   C        21.6399   -4.9084    7.3852  C     
24   C        20.7600   -3.8354    7.5984  C     
25   O        17.0497   -1.8353    8.5977  O     
26   C        15.4285   -3.9098    9.2353  C     
27   C        14.5769   -4.7947    9.9096  C     
28   C        13.2307   -6.0243   12.3426  C     
29   H        10.0081   -5.8851   12.2833  H     
30   H        10.8935   -4.4477   12.8567  H     
31   H         9.6202   -5.1619   13.8486  H     
32   H        13.8308   -9.7925   12.4164  H     
33   H        15.1847   -8.4267   11.0269  H     
34   H        16.8678   -6.5340   11.5776  H     
35   H        19.2166   -2.0550    8.2289  H     
36   H        20.3436   -5.3587   11.8324  H     
37   H        18.7667   -5.0801   12.5587  H     
38   H        19.1536   -6.6625   11.8414  H     
39   H        20.4605   -7.0062    9.7032  H     
40   H        22.1401   -6.8668    7.9907  H     
41   H        22.3548   -4.8450    6.6571  H     
42   H        20.8472   -2.9988    7.0177  H     
43   H        14.9886   -3.2085    8.6335  H     
44   H        13.5652   -4.7171    9.7694  H     
45   H        13.1228   -5.0081   12.3835  H     
@<TRIPOS>BOND
     1    1    2 1
     2    2    3 1
     3    3    4 ar
     4    4    5 am
     5    5    6 1
     6    5    7 2
     7    4    8 ar
     8    8    9 ar
     9    9   10 ar
    10   10   11 1
    11   11   12 ar
    12   12   13 ar
    13   13   14 ar
    14   14   15 1
    15   15   16 1
    16   16   17 1
    17   17   18 ar
    18   18   19 1
    19   13   19 1
    20   19   20 1
    21   18   21 ar
    22   21   22 ar
    23   22   23 ar
    24   23   24 ar
    25   17   24 ar
    26   15   25 2
    27   14   26 ar
    28   26   27 ar
    29   11   27 ar
    30   10   28 ar
    31    3   28 ar
    32    1   29 1
    33    1   30 1
    34    1   31 1
    35    8   32 1
    36    9   33 1
    37   12   34 1
    38   16   35 1
    39   20   36 1
    40   20   37 1
    41   20   38 1
    42   21   39 1
    43   22   40 1
    44   23   41 1
    45   24   42 1
    46   26   43 1
    47   27   44 1
    48   28   45 1
@<TRIPOS>PROPERTY_DATA
  Total_Score	| 6.0280
  Crash		| -1.7986
  Polar		| 2.7171
  FragIndex	| 1
  FragRMSD	| 0.743

