@<TRIPOS>MOLECULE
BindingDB_91968
 44 47 0 0 0
SMALL
NO_CHARGES


@<TRIPOS>ATOM
1    C        10.6864   -5.7495   13.6300  C     
2    O        11.9896   -6.1849   14.0584  O     
3    C        12.7967   -6.7660   13.1133  C     
4    C        12.9242   -8.1788   12.9740  C     
5    N        12.0723   -9.0558   13.5824  N     
6    O        10.9278   -8.6962   14.1041  O     
7    O        12.2517  -10.2461   13.5917  O     
8    C        13.9847   -8.6635   12.1660  C     
9    C        14.8283   -7.7942   11.4584  C     
10   C        14.6672   -6.3945   11.5541  C     
11   C        15.5000   -5.5077   10.8106  C     
12   C        16.9018   -5.6700   10.7609  C     
13   C        17.7377   -4.8209    9.9941  C     
14   C        17.1592   -3.7498    9.2549  C     
15   C        17.8892   -2.8355    8.4845  C     
16   N        19.1861   -2.7614    8.2540  N     
17   C        20.2350   -3.5117    8.6529  C     
18   C        20.1716   -4.6392    9.5077  C     
19   N        19.0501   -5.1573   10.0665  N     
20   C        21.3747   -5.3020    9.8453  C     
21   C        22.6178   -4.8591    9.3573  C     
22   C        22.6811   -3.7290    8.5207  C     
23   N        23.8659   -3.2690    8.0735  N     
24   C        21.4905   -3.0652    8.1730  C     
25   O        17.3097   -1.9092    7.9350  O     
26   C        15.7434   -3.6054    9.3042  C     
27   C        14.9348   -4.4532   10.0718  C     
28   C        13.6565   -5.8981   12.4108  C     
29   H        10.5298   -4.7332   13.9986  H     
30   H        10.5322   -5.7609   12.5440  H     
31   H         9.9409   -6.3970   14.1066  H     
32   H        14.1232   -9.6712   12.0489  H     
33   H        15.5507   -8.1958   10.8541  H     
34   H        17.3233   -6.4313   11.3035  H     
35   H        19.4400   -2.0103    7.6933  H     
36   H        19.2242   -5.9266   10.6308  H     
37   H        21.3571   -6.1232   10.4577  H     
38   H        23.4728   -5.3540    9.6237  H     
39   H        23.8967   -2.4708    7.5132  H     
40   H        24.6911   -3.7143    8.3261  H     
41   H        21.5474   -2.2339    7.5703  H     
42   H        15.2638   -2.8789    8.7660  H     
43   H        13.9214   -4.3131   10.0580  H     
44   H        13.5538   -4.8869   12.5469  H     
@<TRIPOS>BOND
     1    1    2 1
     2    2    3 1
     3    3    4 ar
     4    4    5 am
     5    5    6 1
     6    5    7 2
     7    4    8 ar
     8    8    9 ar
     9    9   10 ar
    10   10   11 1
    11   11   12 ar
    12   12   13 ar
    13   13   14 ar
    14   14   15 1
    15   15   16 1
    16   16   17 1
    17   17   18 ar
    18   18   19 1
    19   13   19 1
    20   18   20 ar
    21   20   21 ar
    22   21   22 ar
    23   22   23 1
    24   22   24 ar
    25   17   24 ar
    26   15   25 2
    27   14   26 ar
    28   26   27 ar
    29   11   27 ar
    30   10   28 ar
    31    3   28 ar
    32    1   29 1
    33    1   30 1
    34    1   31 1
    35    8   32 1
    36    9   33 1
    37   12   34 1
    38   16   35 1
    39   19   36 1
    40   20   37 1
    41   21   38 1
    42   23   39 1
    43   23   40 1
    44   24   41 1
    45   26   42 1
    46   27   43 1
    47   28   44 1
@<TRIPOS>PROPERTY_DATA
  Total_Score	| 7.6757
  Crash		| -1.2982
  Polar		| 2.9606
  FragIndex	| 1
  FragRMSD	| 0.280

