@<TRIPOS>MOLECULE
BindingDB_91847
 78 83 0 0 0
SMALL
NO_CHARGES


@<TRIPOS>ATOM
1    C        10.3911   -5.5288   13.1685  C     
2    O        11.4843   -6.1902   13.8335  O     
3    C        12.4906   -6.6962   13.0483  C     
4    C        12.7930   -8.0896   13.0435  C     
5    N        12.0222   -9.0150   13.6842  N     
6    O        12.3494  -10.2757   13.7752  O     
7    O        10.9657   -8.7471   14.1907  O     
8    C        13.9495   -8.5190   12.3483  C     
9    C        14.7750   -7.6088   11.6752  C     
10   C        14.4811   -6.2280   11.6778  C     
11   C        15.3371   -5.3276   10.9852  C     
12   C        16.7405   -5.4686   11.0454  C     
13   C        17.6143   -4.6857   10.2538  C     
14   C        17.0736   -3.6966    9.3839  C     
15   C        17.8522   -2.8760    8.5568  C     
16   N        19.1453   -2.9201    8.2937  N     
17   C        20.1564   -3.7036    8.7414  C     
18   C        20.0562   -4.6517    9.7833  C     
19   N        18.9179   -5.0192   10.4217  N     
20   C        21.2285   -5.3015   10.2245  C     
21   C        22.4685   -5.0505    9.6160  C     
22   C        22.5931   -4.1639    8.5147  C     
23   C        23.9523   -3.9177    7.8698  C     
24   C        23.8962   -3.2837    6.4320  C     
25   C        24.6934   -5.1929    7.7136  C     
26   N        24.1900   -6.1607    6.9485  N     
27   C        24.6557   -7.4258    6.7032  C     
28   C        24.0844   -8.1182    5.6176  C     
29   C        24.4860   -9.4297    5.3008  C     
30   C        25.4554  -10.1244    6.0720  C     
31   N        25.8390  -11.4125    5.7625  N     
32   C        26.2648  -12.3795    6.7631  C     
33   C        27.6827  -12.8990    6.4229  C     
34   O        27.7057  -13.4310    5.0828  O     
35   C        27.2806  -12.4834    4.0807  C     
36   C        25.8696  -11.9171    4.3975  C     
37   C        25.9963   -9.4229    7.1813  C     
38   C        25.6067   -8.1078    7.4930  C     
39   O        25.7813   -5.3407    8.2609  O     
40   C        24.7007   -2.8908    8.7917  C     
41   C        21.4123   -3.4766    8.1300  C     
42   O        17.3245   -1.9452    7.9621  O     
43   C        15.6572   -3.5366    9.3659  C     
44   C        14.8055   -4.3303   10.1482  C     
45   C        13.3314   -5.7836   12.3729  C     
46   H        10.2998   -5.8029   12.1173  H     
47   H        10.5210   -4.4468   13.2350  H     
48   H         9.4553   -5.8199   13.6688  H     
49   H        14.2002   -9.5107   12.3104  H     
50   H        15.5907   -7.9692   11.1700  H     
51   H        17.1315   -6.1852   11.6669  H     
52   H        19.4359   -2.2345    7.6712  H     
53   H        19.0638   -5.6944   11.1055  H     
54   H        21.1909   -5.9709   11.0000  H     
55   H        23.2894   -5.5385    9.9825  H     
56   H        23.4957   -2.2700    6.4574  H     
57   H        24.8965   -3.2181    5.9918  H     
58   H        23.2656   -3.8757    5.7650  H     
59   H        23.3861   -5.9219    6.4580  H     
60   H        23.3673   -7.6666    5.0462  H     
61   H        24.0087   -9.8930    4.5257  H     
62   H        26.2524  -12.0087    7.7887  H     
63   H        25.5695  -13.2256    6.7432  H     
64   H        28.4164  -12.0937    6.5274  H     
65   H        27.9542  -13.6983    7.1147  H     
66   H        28.0044  -11.6651    4.0132  H     
67   H        27.2583  -12.9938    3.1154  H     
68   H        25.6623  -11.1551    3.6417  H     
69   H        25.1247  -12.7093    4.2865  H     
70   H        26.7296   -9.8394    7.7558  H     
71   H        26.0123   -7.6674    8.3185  H     
72   H        24.1278   -1.9654    8.8912  H     
73   H        25.6795   -2.6342    8.3779  H     
74   H        24.8581   -3.3024    9.7924  H     
75   H        21.4629   -2.7682    7.3972  H     
76   H        15.2096   -2.8476    8.7543  H     
77   H        13.7921   -4.2051   10.0638  H     
78   H        13.1170   -4.7835   12.4197  H     
@<TRIPOS>BOND
     1    1    2 1
     2    2    3 1
     3    3    4 ar
     4    4    5 am
     5    5    6 1
     6    5    7 2
     7    4    8 ar
     8    8    9 ar
     9    9   10 ar
    10   10   11 1
    11   11   12 ar
    12   12   13 ar
    13   13   14 ar
    14   14   15 1
    15   15   16 1
    16   16   17 1
    17   17   18 ar
    18   18   19 1
    19   13   19 1
    20   18   20 ar
    21   20   21 ar
    22   21   22 ar
    23   22   23 1
    24   23   24 1
    25   23   25 1
    26   25   26 am
    27   26   27 1
    28   27   28 ar
    29   28   29 ar
    30   29   30 ar
    31   30   31 1
    32   31   32 1
    33   32   33 1
    34   33   34 1
    35   34   35 1
    36   35   36 1
    37   31   36 1
    38   30   37 ar
    39   37   38 ar
    40   27   38 ar
    41   25   39 2
    42   23   40 1
    43   22   41 ar
    44   17   41 ar
    45   15   42 2
    46   14   43 ar
    47   43   44 ar
    48   11   44 ar
    49   10   45 ar
    50    3   45 ar
    51    1   46 1
    52    1   47 1
    53    1   48 1
    54    8   49 1
    55    9   50 1
    56   12   51 1
    57   16   52 1
    58   19   53 1
    59   20   54 1
    60   21   55 1
    61   24   56 1
    62   24   57 1
    63   24   58 1
    64   26   59 1
    65   28   60 1
    66   29   61 1
    67   32   62 1
    68   32   63 1
    69   33   64 1
    70   33   65 1
    71   35   66 1
    72   35   67 1
    73   36   68 1
    74   36   69 1
    75   37   70 1
    76   38   71 1
    77   40   72 1
    78   40   73 1
    79   40   74 1
    80   41   75 1
    81   43   76 1
    82   44   77 1
    83   45   78 1
@<TRIPOS>PROPERTY_DATA
  Total_Score	| 7.2246
  Crash		| -1.1697
  Polar		| 2.6756
  FragIndex	| 1
  FragRMSD	| 0.357

