@<TRIPOS>MOLECULE
BindingDB_91951
 54 58 0 0 0
SMALL
NO_CHARGES


@<TRIPOS>ATOM
1    C        10.7535   -5.1598   13.3887  C     
2    O        11.0623   -6.5293   13.0707  O     
3    C        12.3547   -6.8865   12.7470  C     
4    C        12.7507   -8.2301   13.0278  C     
5    N        12.0052   -9.1043   13.7743  N     
6    O        12.4082  -10.3195   14.0545  O     
7    O        10.9374   -8.8255   14.2555  O     
8    C        13.9941   -8.6699   12.5056  C     
9    C        14.8220   -7.8231   11.7511  C     
10   C        14.4758   -6.4676   11.5294  C     
11   C        15.3475   -5.5942   10.8043  C     
12   C        16.7528   -5.6730   10.9413  C     
13   C        17.6413   -4.8766   10.1859  C     
14   C        17.1258   -3.8854    9.3042  C     
15   C        17.9187   -2.9906    8.5774  C     
16   N        19.2267   -2.9886    8.3874  N     
17   C        20.2288   -3.7917    8.8295  C     
18   C        20.0931   -4.8107    9.7991  C     
19   N        18.9425   -5.1940   10.3976  N     
20   C        21.2455   -5.5166   10.2116  C     
21   C        22.5104   -5.2260    9.6734  C     
22   C        22.6719   -4.2071    8.7105  C     
23   C        23.9677   -3.8683    8.2102  C     
24   C        24.3542   -2.5116    8.0948  C     
25   C        25.6244   -2.1554    7.6033  C     
26   N        25.9331   -0.8539    7.4535  N     
27   C        26.5469   -3.1546    7.2497  C     
28   C        26.1870   -4.5076    7.3664  C     
29   C        24.9086   -4.8619    7.8354  C     
30   C        21.5101   -3.5033    8.3003  C     
31   O        17.3910   -2.0161    8.0485  O     
32   C        15.7072   -3.7964    9.1801  C     
33   C        14.8429   -4.6344    9.8941  C     
34   C        13.2286   -6.0240   12.0377  C     
35   H        11.3859   -4.7978   14.2122  H     
36   H        10.8874   -4.5188   12.5058  H     
37   H         9.7075   -5.1122   13.7086  H     
38   H        14.3164   -9.6336   12.6487  H     
39   H        15.6983   -8.2061   11.3643  H     
40   H        17.1376   -6.3540   11.6061  H     
41   H        19.5288   -2.2465    7.8420  H     
42   H        19.0698   -5.8871   11.0640  H     
43   H        21.1737   -6.2559   10.9175  H     
44   H        23.3189   -5.7552   10.0152  H     
45   H        23.7109   -1.7691    8.3846  H     
46   H        26.7952   -0.5908    7.0990  H     
47   H        25.2545   -0.1860    7.6326  H     
48   H        27.4737   -2.9030    6.8964  H     
49   H        26.8532   -5.2342    7.0985  H     
50   H        24.6644   -5.8540    7.8882  H     
51   H        21.5996   -2.7613    7.5999  H     
52   H        15.2750   -3.1252    8.5337  H     
53   H        13.8330   -4.5562    9.7272  H     
54   H        12.9465   -5.0528   11.9019  H     
@<TRIPOS>BOND
     1    1    2 1
     2    2    3 1
     3    3    4 ar
     4    4    5 am
     5    5    6 1
     6    5    7 2
     7    4    8 ar
     8    8    9 ar
     9    9   10 ar
    10   10   11 1
    11   11   12 ar
    12   12   13 ar
    13   13   14 ar
    14   14   15 1
    15   15   16 1
    16   16   17 1
    17   17   18 ar
    18   18   19 1
    19   13   19 1
    20   18   20 ar
    21   20   21 ar
    22   21   22 ar
    23   22   23 1
    24   23   24 ar
    25   24   25 ar
    26   25   26 1
    27   25   27 ar
    28   27   28 ar
    29   28   29 ar
    30   23   29 ar
    31   22   30 ar
    32   17   30 ar
    33   15   31 2
    34   14   32 ar
    35   32   33 ar
    36   11   33 ar
    37   10   34 ar
    38    3   34 ar
    39    1   35 1
    40    1   36 1
    41    1   37 1
    42    8   38 1
    43    9   39 1
    44   12   40 1
    45   16   41 1
    46   19   42 1
    47   20   43 1
    48   21   44 1
    49   24   45 1
    50   26   46 1
    51   26   47 1
    52   27   48 1
    53   28   49 1
    54   29   50 1
    55   30   51 1
    56   32   52 1
    57   33   53 1
    58   34   54 1
@<TRIPOS>PROPERTY_DATA
  Total_Score	| 7.8405
  Crash		| -0.9425
  Polar		| 3.4518
  FragIndex	| 1
  FragRMSD	| 0.650

