@<TRIPOS>MOLECULE
BindingDB_91955
 66 70 0 0 0
SMALL
NO_CHARGES


@<TRIPOS>ATOM
1    C        13.5240   -9.7082   13.1104  C     
2    O        13.6537   -8.4739   13.8380  O     
3    C        13.3139   -7.3310   13.1580  C     
4    C        12.0964   -6.6209   13.3974  C     
5    N        11.0367   -7.1327   14.0934  N     
6    O        10.9880   -8.3743   14.4813  O     
7    O        10.0385   -6.5002   14.3344  O     
8    C        11.9888   -5.3157   12.8607  C     
9    C        13.0137   -4.7476   12.0924  C     
10   C        14.1764   -5.4795   11.7656  C     
11   C        15.1670   -4.9100   10.8989  C     
12   C        16.5506   -5.1616   11.0478  C     
13   C        17.5320   -4.5621   10.2174  C     
14   C        17.1396   -3.6054    9.2430  C     
15   C        18.0279   -2.8525    8.4676  C     
16   N        19.3350   -2.9660    8.3149  N     
17   C        20.2564   -3.7974    8.8642  C     
18   C        19.9925   -4.7348    9.8972  C     
19   N        18.7959   -4.9956   10.4698  N     
20   C        21.0776   -5.4746   10.4334  C     
21   C        22.3879   -5.2892    9.9661  C     
22   C        22.6616   -4.3620    8.9365  C     
23   C        24.0642   -4.1320    8.4796  C     
24   C        24.3112   -4.6151    7.1324  C     
25   N        24.2039   -5.9181    6.8620  N     
26   C        24.4437   -6.5627    5.6026  C     
27   C        23.6538   -5.9342    4.4996  C     
28   C        22.2372   -5.9251    4.5385  C     
29   C        21.4935   -5.2702    3.5448  C     
30   C        22.1571   -4.6037    2.4983  C     
31   C        23.5581   -4.6118    2.4347  C     
32   C        24.3000   -5.2587    3.4339  C     
33   C        24.1500   -8.0902    5.6937  C     
34   O        24.7393   -8.6688    6.8588  O     
35   O        24.6634   -3.8187    6.2725  O     
36   C        21.5820   -3.6257    8.3953  C     
37   O        17.6024   -1.8690    7.8688  O     
38   C        15.7456   -3.3856    9.0644  C     
39   C        14.7919   -4.0558    9.8397  C     
40   C        14.3152   -6.7675   12.3356  C     
41   H        13.9934  -10.4903   13.7027  H     
42   H        12.4674   -9.9560   12.9944  H     
43   H        14.0098   -9.6794   12.1265  H     
44   H        11.1491   -4.7509   13.0219  H     
45   H        12.8718   -3.7912   11.7621  H     
46   H        16.8620   -5.7850   11.7981  H     
47   H        19.7188   -2.3003    7.7211  H     
48   H        18.8413   -5.6536   11.1844  H     
49   H        20.9114   -6.1544   11.1837  H     
50   H        23.1386   -5.8398   10.3894  H     
51   H        24.7745   -4.6351    9.1466  H     
52   H        24.2648   -3.0561    8.5546  H     
53   H        23.9377   -6.4961    7.6031  H     
54   H        25.5150   -6.4790    5.3962  H     
55   H        21.7422   -6.3777    5.3082  H     
56   H        20.4712   -5.2549    3.6012  H     
57   H        21.6147   -4.1077    1.7825  H     
58   H        24.0354   -4.1216    1.6693  H     
59   H        25.3193   -5.2210    3.3860  H     
60   H        23.0730   -8.2802    5.7327  H     
61   H        24.5557   -8.6091    4.8168  H     
62   H        25.7068   -8.6039    6.7077  H     
63   H        21.7690   -2.9433    7.6527  H     
64   H        15.3979   -2.7278    8.3585  H     
65   H        13.8022   -3.8821    9.6294  H     
66   H        15.1627   -7.3212   12.1638  H     
@<TRIPOS>BOND
     1    1    2 1
     2    2    3 1
     3    3    4 ar
     4    4    5 am
     5    5    6 1
     6    5    7 2
     7    4    8 ar
     8    8    9 ar
     9    9   10 ar
    10   10   11 1
    11   11   12 ar
    12   12   13 ar
    13   13   14 ar
    14   14   15 1
    15   15   16 1
    16   16   17 1
    17   17   18 ar
    18   18   19 1
    19   13   19 1
    20   18   20 ar
    21   20   21 ar
    22   21   22 ar
    23   22   23 1
    24   23   24 1
    25   24   25 am
    26   25   26 1
    27   26   27 1
    28   27   28 ar
    29   28   29 ar
    30   29   30 ar
    31   30   31 ar
    32   31   32 ar
    33   27   32 ar
    34   26   33 1
    35   33   34 1
    36   24   35 2
    37   22   36 ar
    38   17   36 ar
    39   15   37 2
    40   14   38 ar
    41   38   39 ar
    42   11   39 ar
    43   10   40 ar
    44    3   40 ar
    45    1   41 1
    46    1   42 1
    47    1   43 1
    48    8   44 1
    49    9   45 1
    50   12   46 1
    51   16   47 1
    52   19   48 1
    53   20   49 1
    54   21   50 1
    55   23   51 1
    56   23   52 1
    57   25   53 1
    58   26   54 1
    59   28   55 1
    60   29   56 1
    61   30   57 1
    62   31   58 1
    63   32   59 1
    64   33   60 1
    65   33   61 1
    66   34   62 1
    67   36   63 1
    68   38   64 1
    69   39   65 1
    70   40   66 1
@<TRIPOS>PROPERTY_DATA
  Total_Score	| 7.3030
  Crash		| -1.7465
  Polar		| 2.3015
  FragIndex	| 1
  FragRMSD	| 0.424

