@<TRIPOS>MOLECULE
BindingDB_91846
 75 80 0 0 0
SMALL
NO_CHARGES


@<TRIPOS>ATOM
1    C        10.6239   -5.4178   13.1075  C     
2    O        11.4950   -6.2494   13.9036  O     
3    C        12.5416   -6.7920   13.1988  C     
4    C        12.7916   -8.1956   13.1949  C     
5    N        11.9937   -9.0828   13.8557  N     
6    O        10.8775   -8.7548   14.4403  O     
7    O        12.2334  -10.2645   13.9090  O     
8    C        13.9016   -8.6593   12.4430  C     
9    C        14.7152   -7.7817   11.7060  C     
10   C        14.4822   -6.3881   11.7372  C     
11   C        15.2943   -5.5024   10.9663  C     
12   C        14.7493   -4.4720   10.1513  C     
13   C        13.2929   -4.2199    9.9597  C     
14   C        15.6399   -3.6475    9.4233  C     
15   C        17.0495   -3.8262    9.4220  C     
16   C        17.5781   -4.8693   10.2298  C     
17   N        18.8768   -5.2392   10.3621  N     
18   C        20.0232   -4.8158    9.7804  C     
19   C        20.1387   -3.7815    8.8217  C     
20   N        19.1265   -3.0025    8.3760  N     
21   C        17.8320   -2.9802    8.6222  C     
22   O        17.3109   -2.0240    8.0590  O     
23   C        21.4133   -3.4602    8.3032  C     
24   C        22.5809   -4.1417    8.7206  C     
25   C        23.9076   -3.7634    8.1720  C     
26   C        23.9233   -3.9695    6.7386  C     
27   N        23.4691   -3.0214    5.9340  N     
28   C        23.2924   -3.0605    4.5911  C     
29   C        23.6749   -1.9321    3.8365  C     
30   C        23.4815   -1.8875    2.4539  C     
31   C        22.8736   -2.9547    1.7402  C     
32   N        22.6973   -2.9068    0.3792  N     
33   C        22.2810   -1.7040   -0.3277  C     
34   C        21.0541   -2.0039   -1.2273  C     
35   O        21.2481   -3.1831   -2.0372  O     
36   C        21.6135   -4.3502   -1.2703  C     
37   C        22.9139   -4.0587   -0.4806  C     
38   C        22.4283   -4.0599    2.5267  C     
39   C        22.6333   -4.1166    3.9095  C     
40   O        24.3948   -5.0226    6.3011  O     
41   C        22.4524   -5.1706    9.6717  C     
42   C        21.1918   -5.4994   10.1918  C     
43   C        16.6940   -5.6689   10.9966  C     
44   C        13.4052   -5.9047   12.5212  C     
45   H        10.2619   -5.9394   12.2182  H     
46   H        11.1318   -4.4948   12.8050  H     
47   H         9.7472   -5.1537   13.7074  H     
48   H        14.1058   -9.6597   12.3822  H     
49   H        15.4685   -8.1713   11.1299  H     
50   H        13.0639   -4.1204    8.8980  H     
51   H        12.6555   -5.0202   10.3350  H     
52   H        13.0156   -3.2887   10.4568  H     
53   H        15.2240   -2.9104    8.8455  H     
54   H        19.0121   -5.9767   10.9789  H     
55   H        19.4222   -2.2837    7.7953  H     
56   H        21.5002   -2.7050    7.6141  H     
57   H        24.0887   -2.7137    8.4261  H     
58   H        24.7250   -4.3346    8.6209  H     
59   H        23.2418   -2.1768    6.3597  H     
60   H        24.1208   -1.1407    4.3133  H     
61   H        23.8552   -1.0822    1.9508  H     
62   H        23.1082   -1.3505   -0.9464  H     
63   H        21.9886   -0.8924    0.3409  H     
64   H        20.8781   -1.1551   -1.8899  H     
65   H        20.1586   -2.1371   -0.6075  H     
66   H        21.7744   -5.1837   -1.9574  H     
67   H        20.8075   -4.6246   -0.5833  H     
68   H        23.2401   -4.9589    0.0414  H     
69   H        23.7098   -3.8204   -1.1947  H     
70   H        21.8957   -4.8139    2.0903  H     
71   H        22.2468   -4.9074    4.4337  H     
72   H        23.2730   -5.6966    9.9820  H     
73   H        21.1332   -6.2532   10.8839  H     
74   H        17.0866   -6.4112   11.5859  H     
75   H        13.2188   -4.8982   12.5711  H     
@<TRIPOS>BOND
     1    1    2 1
     2    2    3 1
     3    3    4 ar
     4    4    5 am
     5    5    6 1
     6    5    7 2
     7    4    8 ar
     8    8    9 ar
     9    9   10 ar
    10   10   11 1
    11   11   12 ar
    12   12   13 1
    13   12   14 ar
    14   14   15 ar
    15   15   16 ar
    16   16   17 1
    17   17   18 1
    18   18   19 ar
    19   19   20 1
    20   20   21 1
    21   15   21 1
    22   21   22 2
    23   19   23 ar
    24   23   24 ar
    25   24   25 1
    26   25   26 1
    27   26   27 am
    28   27   28 1
    29   28   29 ar
    30   29   30 ar
    31   30   31 ar
    32   31   32 1
    33   32   33 1
    34   33   34 1
    35   34   35 1
    36   35   36 1
    37   36   37 1
    38   32   37 1
    39   31   38 ar
    40   38   39 ar
    41   28   39 ar
    42   26   40 2
    43   24   41 ar
    44   41   42 ar
    45   18   42 ar
    46   16   43 ar
    47   11   43 ar
    48   10   44 ar
    49    3   44 ar
    50    1   45 1
    51    1   46 1
    52    1   47 1
    53    8   48 1
    54    9   49 1
    55   13   50 1
    56   13   51 1
    57   13   52 1
    58   14   53 1
    59   17   54 1
    60   20   55 1
    61   23   56 1
    62   25   57 1
    63   25   58 1
    64   27   59 1
    65   29   60 1
    66   30   61 1
    67   33   62 1
    68   33   63 1
    69   34   64 1
    70   34   65 1
    71   36   66 1
    72   36   67 1
    73   37   68 1
    74   37   69 1
    75   38   70 1
    76   39   71 1
    77   41   72 1
    78   42   73 1
    79   43   74 1
    80   44   75 1
@<TRIPOS>PROPERTY_DATA
  Total_Score	| 8.2938
  Crash		| -1.5890
  Polar		| 3.5680
  FragIndex	| 1
  FragRMSD	| 0.857

