@<TRIPOS>MOLECULE
BindingDB_91845
 60 64 0 0 0
SMALL
NO_CHARGES


@<TRIPOS>ATOM
1    C        10.6501   -5.1525   12.9872  C     
2    O        11.5985   -5.8603   13.8120  O     
3    C        12.5925   -6.4879   13.1070  C     
4    C        12.6828   -7.9062   13.0646  C     
5    N        11.7794   -8.7155   13.6976  N     
6    O        10.8089   -8.2593   14.4345  O     
7    O        11.8336   -9.9188   13.6469  O     
8    C        13.7492   -8.4666   12.3183  C     
9    C        14.6683   -7.6624   11.6272  C     
10   C        14.5776   -6.2544   11.6569  C     
11   C        15.4705   -5.4353   10.8993  C     
12   C        16.8705   -5.6108   10.9631  C     
13   C        17.7737   -4.8265   10.1971  C     
14   C        17.2758   -3.8090    9.3410  C     
15   C        18.0904   -2.9573    8.5768  C     
16   N        19.4013   -2.9675    8.3992  N     
17   C        20.3873   -3.7674    8.8689  C     
18   C        20.2282   -4.7897    9.8337  C     
19   N        19.0612   -5.1904   10.3942  N     
20   C        21.3606   -5.5164   10.2600  C     
21   C        22.6207   -5.2987    9.6914  C     
22   C        22.7847   -4.3267    8.6788  C     
23   C        24.0837   -4.2003    7.9476  C     
24   C        23.9921   -4.2670    6.4912  C     
25   N        23.4703   -5.2930    5.7892  N     
26   C        23.2334   -6.6222    6.3371  C     
27   C        21.7356   -6.9878    6.1476  C     
28   O        21.3657   -6.8735    4.7554  O     
29   C        21.6126   -5.5630    4.2059  C     
30   C        23.0931   -5.1402    4.3929  C     
31   O        24.4549   -3.2953    5.8910  O     
32   C        21.6674   -3.5485    8.3057  C     
33   O        17.5814   -2.0223    7.9746  O     
34   C        15.8634   -3.6476    9.2754  C     
35   C        14.9818   -4.4360   10.0331  C     
36   C        13.5344   -5.6846   12.4306  C     
37   H        10.2222   -5.7948   12.2068  H     
38   H         9.8423   -4.7965   13.6278  H     
39   H        11.1226   -4.2808   12.5233  H     
40   H        13.8543   -9.4792   12.2462  H     
41   H        15.3961   -8.1165   11.0697  H     
42   H        17.2347   -6.3348   11.5930  H     
43   H        19.7193   -2.2652    7.8112  H     
44   H        19.1706   -5.9152   11.0290  H     
45   H        21.2714   -6.2487   10.9712  H     
46   H        23.4142   -5.8610    9.9999  H     
47   H        24.7067   -5.0204    8.3190  H     
48   H        24.5952   -3.2579    8.1954  H     
49   H        23.8399   -7.3442    5.7713  H     
50   H        23.5035   -6.7510    7.3889  H     
51   H        21.5714   -8.0223    6.4661  H     
52   H        21.1078   -6.3318    6.7708  H     
53   H        21.3800   -5.5985    3.1410  H     
54   H        20.9440   -4.8347    4.6755  H     
55   H        23.7348   -5.7788    3.7746  H     
56   H        23.1951   -4.1194    4.0144  H     
57   H        21.7891   -2.8218    7.5965  H     
58   H        15.4401   -2.9452    8.6610  H     
59   H        13.9741   -4.2737    9.9372  H     
60   H        13.4484   -4.6672   12.4904  H     
@<TRIPOS>BOND
     1    1    2 1
     2    2    3 1
     3    3    4 ar
     4    4    5 am
     5    5    6 1
     6    5    7 2
     7    4    8 ar
     8    8    9 ar
     9    9   10 ar
    10   10   11 1
    11   11   12 ar
    12   12   13 ar
    13   13   14 ar
    14   14   15 1
    15   15   16 1
    16   16   17 1
    17   17   18 ar
    18   18   19 1
    19   13   19 1
    20   18   20 ar
    21   20   21 ar
    22   21   22 ar
    23   22   23 1
    24   23   24 1
    25   24   25 am
    26   25   26 1
    27   26   27 1
    28   27   28 1
    29   28   29 1
    30   29   30 1
    31   25   30 1
    32   24   31 2
    33   22   32 ar
    34   17   32 ar
    35   15   33 2
    36   14   34 ar
    37   34   35 ar
    38   11   35 ar
    39   10   36 ar
    40    3   36 ar
    41    1   37 1
    42    1   38 1
    43    1   39 1
    44    8   40 1
    45    9   41 1
    46   12   42 1
    47   16   43 1
    48   19   44 1
    49   20   45 1
    50   21   46 1
    51   23   47 1
    52   23   48 1
    53   26   49 1
    54   26   50 1
    55   27   51 1
    56   27   52 1
    57   29   53 1
    58   29   54 1
    59   30   55 1
    60   30   56 1
    61   32   57 1
    62   34   58 1
    63   35   59 1
    64   36   60 1
@<TRIPOS>PROPERTY_DATA
  Total_Score	| 7.7341
  Crash		| -1.0822
  Polar		| 2.1308
  FragIndex	| 1
  FragRMSD	| 0.723

