@<TRIPOS>MOLECULE
BindingDB_91826
 48 51 0 0 0
SMALL
NO_CHARGES


@<TRIPOS>ATOM
1    C        10.8173   -5.2624   12.8932  C     
2    O        11.7548   -6.0166   13.6847  O     
3    C        12.7463   -6.6319   12.9599  C     
4    C        12.9117   -8.0455   12.9730  C     
5    N        12.0830   -8.8747   13.6762  N     
6    O        10.9991   -8.4737   14.2795  O     
7    O        12.2797  -10.0577   13.7754  O     
8    C        13.9883   -8.5849   12.2199  C     
9    C        14.8454   -7.7665   11.4643  C     
10   C        14.7169   -6.3591   11.4925  C     
11   C        15.5967   -5.5171   10.7365  C     
12   C        16.9698   -5.8118   10.5720  C     
13   C        17.8411   -4.9954    9.8053  C     
14   C        17.3459   -3.8028    9.2086  C     
15   C        18.1270   -2.9046    8.4654  C     
16   N        19.4076   -2.9596    8.1408  N     
17   C        20.3709   -3.8933    8.3339  C     
18   C        20.2132   -5.0968    9.0587  C     
19   N        19.0938   -5.5004    9.7098  N     
20   C        21.2932   -6.0050    9.1262  C     
21   C        22.5077   -5.7477    8.4706  C     
22   C        22.6885   -4.5440    7.7690  C     
23   N        23.8822   -4.3262    7.1429  N     
24   C        24.6857   -3.2880    7.3116  C     
25   N        24.4845   -2.3352    8.1986  N     
26   O        25.7081   -3.2353    6.6491  O     
27   C        21.6164   -3.6230    7.7134  C     
28   O        17.6198   -1.8807    8.0278  O     
29   C        15.9612   -3.5201    9.3719  C     
30   C        15.1090   -4.3615   10.0975  C     
31   C        13.6744   -5.8127   12.2801  C     
32   H        10.0293   -4.8988   13.5533  H     
33   H        11.3037   -4.4005   12.4283  H     
34   H        10.3506   -5.8776   12.1201  H     
35   H        14.1443   -9.5965   12.1881  H     
36   H        15.5616   -8.2146   10.8843  H     
37   H        17.3479   -6.6496   11.0259  H     
38   H        19.7110   -2.1886    7.6349  H     
39   H        19.2064   -6.3447   10.1731  H     
40   H        21.1968   -6.8828    9.6424  H     
41   H        23.2671   -6.4298    8.5336  H     
42   H        24.2239   -5.0471    6.5857  H     
43   H        25.1301   -1.6183    8.2942  H     
44   H        23.7289   -2.3836    8.8039  H     
45   H        21.7423   -2.7534    7.1848  H     
46   H        15.5377   -2.6873    8.9532  H     
47   H        14.1153   -4.1206   10.1380  H     
48   H        13.5753   -4.7969   12.3684  H     
@<TRIPOS>BOND
     1    1    2 1
     2    2    3 1
     3    3    4 ar
     4    4    5 am
     5    5    6 1
     6    5    7 2
     7    4    8 ar
     8    8    9 ar
     9    9   10 ar
    10   10   11 1
    11   11   12 ar
    12   12   13 ar
    13   13   14 ar
    14   14   15 1
    15   15   16 1
    16   16   17 1
    17   17   18 ar
    18   18   19 1
    19   13   19 1
    20   18   20 ar
    21   20   21 ar
    22   21   22 ar
    23   22   23 1
    24   23   24 am
    25   24   25 am
    26   24   26 2
    27   22   27 ar
    28   17   27 ar
    29   15   28 2
    30   14   29 ar
    31   29   30 ar
    32   11   30 ar
    33   10   31 ar
    34    3   31 ar
    35    1   32 1
    36    1   33 1
    37    1   34 1
    38    8   35 1
    39    9   36 1
    40   12   37 1
    41   16   38 1
    42   19   39 1
    43   20   40 1
    44   21   41 1
    45   23   42 1
    46   25   43 1
    47   25   44 1
    48   27   45 1
    49   29   46 1
    50   30   47 1
    51   31   48 1
@<TRIPOS>PROPERTY_DATA
  Total_Score	| 5.5733
  Crash		| -0.8337
  Polar		| 2.6234
  FragIndex	| 1
  FragRMSD	| 1.234

