@<TRIPOS>MOLECULE
BindingDB_50145358
 39 41 0 0 0
SMALL
NO_CHARGES


@<TRIPOS>ATOM
1    C        23.6973   37.7048   -0.5917  C     
2    N        22.8387   34.2761    0.5060  N     
3    C        23.4065   36.3138   -0.6620  C     
4    C        23.1833   35.5895    0.5320  C     
5    C        23.8258   38.5242   -1.7447  C     
6    C        22.5802   33.5225    1.5683  C     
7    C        22.1735   32.2396    1.3290  C     
8    C        23.8236   38.3007    0.6880  C     
9    C        21.9094   31.2789   -2.8555  C     
10   N        22.1111   31.8069    0.0654  N     
11   C        22.0411   30.3087   -1.8196  C     
12   C        23.2670   36.2087    1.8036  C     
13   C        21.5719   30.5724   -0.4219  C     
14   O        23.9256   38.0193   -2.9998  O     
15   O        21.8555   31.5161    2.2748  O     
16   C        22.3410   31.0039   -4.1733  C     
17   C        22.6721   34.1251    2.8119  C     
18   C        23.6094   37.5723    1.8736  C     
19   C        22.9940   35.4293    2.9383  C     
20   O        23.2963   35.6725   -1.8622  O     
21   O        23.7508   39.8807   -1.6510  O     
22   O        21.3898   32.5128   -2.5970  O     
23   O        22.2376   31.8980   -5.1971  O     
24   C        22.6411   29.0718   -2.1537  C     
25   C        23.0643   28.7876   -3.4587  C     
26   C        22.9114   29.7522   -4.4710  C     
27   H        24.0807   39.2869    0.7834  H     
28   H        22.3950   32.4364   -0.6293  H     
29   H        21.8428   29.7521    0.2486  H     
30   H        20.4840   30.6569   -0.4240  H     
31   H        22.4968   33.5940    3.6350  H     
32   H        23.6986   38.0474    2.7783  H     
33   H        23.0354   35.8420    3.8475  H     
34   H        23.5263   34.7332   -1.7067  H     
35   H        20.6182   32.3724   -2.0106  H     
36   H        21.7674   32.6830   -4.8512  H     
37   H        22.7828   28.3615   -1.4405  H     
38   H        23.4858   27.8820   -3.6819  H     
39   H        23.2197   29.5404   -5.4253  H     
@<TRIPOS>BOND
     1    1    3 1
     2    1    5 1
     3    1    8 2
     4    2    4 1
     5    2    6 2
     6    3    4 2
     7    3   20 1
     8    4   12 1
     9    5   14 2
    10    5   21 1
    11    6    7 1
    12    6   17 1
    13    7   10 am
    14    7   15 2
    15    8   18 1
    16    9   11 2
    17    9   16 1
    18    9   22 1
    19   10   13 1
    20   11   13 1
    21   11   24 1
    22   12   18 2
    23   12   19 1
    24   16   23 1
    25   16   26 2
    26   17   19 2
    27   24   25 2
    28   25   26 1
    29    8   27 1
    30   10   28 1
    31   13   29 1
    32   13   30 1
    33   17   31 1
    34   18   32 1
    35   19   33 1
    36   20   34 1
    37   22   35 1
    38   23   36 1
    39   24   37 1
    40   25   38 1
    41   26   39 1
@<TRIPOS>PROPERTY_DATA
  Total_Score	| 3.8244
  Crash		| -3.9171
  Polar		| 1.2000
  FragIndex	| 1
  FragRMSD	| 1.177

