@<TRIPOS>MOLECULE
BindingDB_50145371
 39 41 0 0 0
SMALL
NO_CHARGES


@<TRIPOS>ATOM
1    C        23.7475   37.6234   -0.6395  C     
2    N        22.7912   34.2775    0.5701  N     
3    C        23.3988   36.2487   -0.6578  C     
4    C        23.1574   35.5777    0.5619  C     
5    C        23.9532   38.3694   -1.8371  C     
6    C        22.5577   33.5544    1.6603  C     
7    C        22.1456   32.2695    1.4705  C     
8    C        23.8555   38.2787    0.6184  C     
9    C        21.8624   30.5652   -1.7718  C     
10   C        22.4138   29.3926   -2.3449  C     
11   N        22.2000   31.7782    0.2363  N     
12   C        22.7898   29.3586   -3.7016  C     
13   C        23.2599   36.2344    1.8151  C     
14   C        21.4990   30.6692   -0.3236  C     
15   O        24.1771   37.7819   -3.0382  O     
16   O        21.5766   31.6478    2.3588  O     
17   C        22.6683   34.1810    2.8874  C     
18   C        23.6150   37.5970    1.8262  C     
19   C        21.6705   31.6917   -2.6194  C     
20   C        23.0041   35.4885    2.9682  C     
21   C        22.6120   30.4910   -4.5185  C     
22   O        23.2552   35.5728   -1.8369  O     
23   O        23.8405   39.7229   -1.8417  O     
24   O        22.6188   28.2810   -1.5927  O     
25   C        22.0486   31.6559   -3.9715  C     
26   O        22.9659   30.4720   -5.8271  O     
27   H        24.1234   39.2640    0.6671  H     
28   H        22.6524   32.3546   -0.4059  H     
29   H        23.1986   28.5065   -4.0950  H     
30   H        20.4161   30.8382   -0.2312  H     
31   H        21.7455   29.7675    0.2378  H     
32   H        22.5172   33.6672    3.7248  H     
33   H        23.6993   38.1021    2.7094  H     
34   H        21.2707   32.5523   -2.2423  H     
35   H        23.0727   35.9237    3.8613  H     
36   H        23.5877   34.6623   -1.6892  H     
37   H        23.5553   28.0219   -1.7483  H     
38   H        21.9178   32.4797   -4.5575  H     
39   H        22.7110   29.5820   -6.1610  H     
@<TRIPOS>BOND
     1    1    3 1
     2    1    5 1
     3    1    8 2
     4    2    4 1
     5    2    6 2
     6    3    4 2
     7    3   22 1
     8    4   13 1
     9    5   15 2
    10    5   23 1
    11    6    7 1
    12    6   17 1
    13    7   11 am
    14    7   16 2
    15    8   18 1
    16    9   10 2
    17    9   14 1
    18    9   19 1
    19   10   12 1
    20   10   24 1
    21   11   14 1
    22   12   21 2
    23   13   18 2
    24   13   20 1
    25   17   20 2
    26   19   25 2
    27   21   25 1
    28   21   26 1
    29    8   27 1
    30   11   28 1
    31   12   29 1
    32   14   30 1
    33   14   31 1
    34   17   32 1
    35   18   33 1
    36   19   34 1
    37   20   35 1
    38   22   36 1
    39   24   37 1
    40   25   38 1
    41   26   39 1
@<TRIPOS>PROPERTY_DATA
  Total_Score	| 4.2659
  Crash		| -4.2949
  Polar		| 2.1390
  FragIndex	| 1
  FragRMSD	| 1.100

