@<TRIPOS>MOLECULE
BindingDB_50065794
 23 24 0 0 0
SMALL
NO_CHARGES


@<TRIPOS>ATOM
1    C        23.7012   36.9977   -1.0042  C     
2    C        23.3304   35.6614   -0.6836  C     
3    C        23.1289   35.2775    0.6592  C     
4    N        22.7654   34.0099    0.9939  N     
5    C        23.9703   37.4183   -2.3389  C     
6    C        23.8102   37.9331    0.0555  C     
7    C        23.2817   36.2234    1.7105  C     
8    O        24.1090   36.5454   -3.3637  O     
9    C        23.6044   37.5584    1.3960  C     
10   C        22.5643   33.6067    2.2439  C     
11   C        23.1009   35.7772    3.0243  C     
12   O        23.1562   34.7110   -1.6358  O     
13   O        24.2459   38.7072   -2.6376  O     
14   C        22.7596   34.4976    3.2755  C     
15   C        22.0978   32.2501    2.4390  C     
16   H        24.0590   38.9099   -0.1272  H     
17   H        23.6905   38.2598    2.1376  H     
18   H        23.2303   36.4012    3.7869  H     
19   H        22.4057   35.0194   -2.1816  H     
20   H        22.6473   34.2029    4.2171  H     
21   H        21.1235   32.1345    1.9583  H     
22   H        21.9916   31.9879    3.4969  H     
23   H        22.7930   31.5421    1.9817  H     
@<TRIPOS>BOND
     1    1    2 1
     2    1    5 1
     3    1    6 2
     4    2    3 2
     5    2   12 1
     6    3    4 1
     7    3    7 1
     8    4   10 2
     9    5    8 2
    10    5   13 1
    11    6    9 1
    12    7    9 2
    13    7   11 1
    14   10   14 1
    15   10   15 1
    16   11   14 2
    17    6   16 1
    18    9   17 1
    19   11   18 1
    20   12   19 1
    21   14   20 1
    22   15   21 1
    23   15   22 1
    24   15   23 1
@<TRIPOS>PROPERTY_DATA
  Total_Score	| 3.9760
  Crash		| -0.4303
  Polar		| 0.0000
  FragIndex	| 1
  FragRMSD	| 0.110

