@<TRIPOS>MOLECULE
BindingDB_50145361
 40 42 0 0 0
SMALL
NO_CHARGES


@<TRIPOS>ATOM
1    C        23.5517   37.3729   -2.2417  C     
2    N        22.9086   34.8972    0.4322  N     
3    C        23.3524   36.1189   -1.5964  C     
4    C        23.2023   36.0603   -0.1967  C     
5    C        22.4545   33.5887    2.2571  C     
6    C        23.0346   29.8308    5.7004  C     
7    C        22.7204   34.8046    1.7385  C     
8    C        23.6179   37.4983   -3.6601  C     
9    C        21.8434   30.2571    5.0830  C     
10   C        24.2047   30.6158    5.6032  C     
11   C        23.0389   32.1232    4.0755  C     
12   N        23.1307   33.2418    3.3362  N     
13   C        23.6628   38.5292   -1.4302  C     
14   C        21.8460   31.3885    4.2567  C     
15   C        24.2038   31.7453    4.7698  C     
16   C        23.3241   37.2302    0.5978  C     
17   O        21.7022   32.8114    1.6718  O     
18   O        23.4936   36.4448   -4.4979  O     
19   C        22.8477   35.9242    2.5267  C     
20   C        23.5667   38.4660   -0.0306  C     
21   C        23.1628   37.1134    1.9793  C     
22   O        23.2779   34.9596   -2.3139  O     
23   O        23.0371   28.6539    6.3742  O     
24   O        23.7354   38.7062   -4.2604  O     
25   O        20.6736   29.6099    5.2562  O     
26   O        25.3189   30.2242    6.2961  O     
27   C        26.1303   31.2986    6.8316  C     
28   H        23.8160   33.8631    3.6337  H     
29   H        23.7931   39.4580   -1.8563  H     
30   H        20.9806   31.6939    3.8090  H     
31   H        25.0797   32.2777    4.6786  H     
32   H        22.7157   35.8706    3.5101  H     
33   H        23.6365   39.3209    0.5215  H     
34   H        23.2639   37.9100    2.5685  H     
35   H        23.4232   34.2273   -1.6798  H     
36   H        22.1684   28.2256    6.1845  H     
37   H        20.4226   29.8067    6.1840  H     
38   H        26.6728   31.7883    6.0185  H     
39   H        26.8762   30.8802    7.5121  H     
40   H        25.5341   32.0486    7.3772  H     
@<TRIPOS>BOND
     1    1    3 1
     2    1    8 1
     3    1   13 2
     4    2    4 1
     5    2    7 2
     6    3    4 2
     7    3   22 1
     8    4   16 1
     9    5    7 1
    10    5   12 am
    11    5   17 2
    12    6    9 1
    13    6   10 2
    14    6   23 1
    15    7   19 1
    16    8   18 2
    17    8   24 1
    18    9   14 2
    19    9   25 1
    20   10   15 1
    21   10   26 1
    22   11   12 1
    23   11   14 1
    24   11   15 2
    25   13   20 1
    26   16   20 2
    27   16   21 1
    28   19   21 2
    29   26   27 1
    30   12   28 1
    31   13   29 1
    32   14   30 1
    33   15   31 1
    34   19   32 1
    35   20   33 1
    36   21   34 1
    37   22   35 1
    38   23   36 1
    39   25   37 1
    40   27   38 1
    41   27   39 1
    42   27   40 1
@<TRIPOS>PROPERTY_DATA
  Total_Score	| 0.1024
  Crash		| -10.0604
  Polar		| 1.5511
  FragIndex	| 1
  FragRMSD	| 1.307

