@<TRIPOS>MOLECULE
BindingDB_50065787
 34 36 0 0 0
SMALL
NO_CHARGES


@<TRIPOS>ATOM
1    N        22.8120   34.3325   -0.0697  N     
2    C        23.1533   35.5910    0.2783  C     
3    C        22.4508   28.5983   -2.3743  C     
4    C        22.1654   32.1604    0.2461  C     
5    C        21.6916   32.0089   -1.0121  C     
6    C        22.8322   28.9298   -3.6931  C     
7    C        22.4014   33.3982    0.7742  C     
8    C        23.5486   36.5215   -0.6999  C     
9    C        22.0493   29.6095   -1.4765  C     
10   C        23.1053   35.9331    1.6516  C     
11   C        22.0079   30.9635   -1.8784  C     
12   C        22.7792   30.2688   -4.1131  C     
13   C        22.6899   34.9424    2.5503  C     
14   O        22.4552   27.3084   -1.9505  O     
15   C        22.3558   33.7069    2.1155  C     
16   C        22.3573   31.2688   -3.2207  C     
17   O        23.2292   27.9519   -4.5495  O     
18   O        23.5791   36.2045   -2.0216  O     
19   C        23.9033   38.1639    1.0639  C     
20   C        23.9217   37.8143   -0.2973  C     
21   C        23.4869   37.2352    2.0336  C     
22   H        22.5848   31.3862    0.7029  H     
23   H        21.2812   32.8093   -1.4384  H     
24   H        21.7588   29.3509   -0.5293  H     
25   H        23.0501   30.5204   -5.0691  H     
26   H        22.6341   35.1476    3.5207  H     
27   H        22.6402   26.7528   -2.7329  H     
28   H        22.0555   33.0250    2.7717  H     
29   H        22.3498   32.2356   -3.5552  H     
30   H        23.5845   28.3991   -5.3516  H     
31   H        23.3671   35.2505   -2.0870  H     
32   H        24.1941   39.0971    1.3512  H     
33   H        24.2257   38.4987   -0.9910  H     
34   H        23.4659   37.5112    3.0150  H     
@<TRIPOS>BOND
     1    1    2 1
     2    1    7 2
     3    2    8 2
     4    2   10 1
     5    3    6 1
     6    3    9 2
     7    3   14 1
     8    4    5 2
     9    4    7 1
    10    5   11 1
    11    6   12 2
    12    6   17 1
    13    7   15 1
    14    8   18 1
    15    8   20 1
    16    9   11 1
    17   10   13 1
    18   10   21 2
    19   11   16 2
    20   12   16 1
    21   13   15 2
    22   19   20 2
    23   19   21 1
    24    4   22 1
    25    5   23 1
    26    9   24 1
    27   12   25 1
    28   13   26 1
    29   14   27 1
    30   15   28 1
    31   16   29 1
    32   17   30 1
    33   18   31 1
    34   19   32 1
    35   20   33 1
    36   21   34 1
@<TRIPOS>PROPERTY_DATA
  Total_Score	| 1.6541
  Crash		| -3.9708
  Polar		| 0.0002
  FragIndex	| 1
  FragRMSD	| 1.260

