@<TRIPOS>MOLECULE
BindingDB_50145359
 39 41 0 0 0
SMALL
NO_CHARGES


@<TRIPOS>ATOM
1    C        23.6690   37.7473   -0.5500  C     
2    N        22.7574   34.3102    0.5127  N     
3    C        23.3048   36.3730   -0.6263  C     
4    C        23.1161   35.6212    0.5539  C     
5    C        23.7787   38.5879   -1.6930  C     
6    C        22.5618   33.5356    1.5739  C     
7    C        22.1780   32.2415    1.3502  C     
8    C        23.8935   38.3065    0.7327  C     
9    N        22.0258   31.8109    0.1041  N     
10   C        22.2279   30.9970   -4.1079  C     
11   C        23.2885   36.2097    1.8309  C     
12   C        22.8082   29.7574   -4.4518  C     
13   O        23.7726   39.9403   -1.5789  O     
14   O        21.9489   31.4896    2.2929  O     
15   C        21.8237   31.2430   -2.7820  C     
16   C        22.7233   34.1112    2.8237  C     
17   C        23.6882   37.5627    1.9110  C     
18   C        23.0625   35.4122    2.9537  C     
19   C        23.0127   28.7906   -3.4484  C     
20   O        23.1007   35.7383   -1.8116  O     
21   C        22.0173   30.2807   -1.7628  C     
22   C        21.5395   30.5501   -0.3728  C     
23   O        23.6988   38.1017   -2.9513  O     
24   O        22.0132   31.9612   -5.0419  O     
25   C        22.6387   29.0581   -2.1199  C     
26   O        23.1390   29.5008   -5.7451  O     
27   H        24.2151   39.2727    0.8363  H     
28   H        22.1940   32.4720   -0.5814  H     
29   H        21.3697   32.1316   -2.5624  H     
30   H        22.5949   33.5715    3.6454  H     
31   H        23.8404   38.0089    2.8152  H     
32   H        23.1464   35.8028    3.8697  H     
33   H        23.4306   27.8877   -3.6863  H     
34   H        23.8238   36.0382   -2.3986  H     
35   H        21.8333   29.7399    0.3108  H     
36   H        20.4504   30.5991   -0.3806  H     
37   H        22.2920   31.5840   -5.9027  H     
38   H        22.8126   28.3424   -1.4129  H     
39   H        23.3152   28.5378   -5.8033  H     
@<TRIPOS>BOND
     1    1    3 1
     2    1    5 1
     3    1    8 2
     4    2    4 1
     5    2    6 2
     6    3    4 2
     7    3   20 1
     8    4   11 1
     9    5   13 2
    10    5   23 1
    11    6    7 1
    12    6   16 1
    13    7    9 am
    14    7   14 2
    15    8   17 1
    16    9   22 1
    17   10   12 2
    18   10   15 1
    19   10   24 1
    20   11   17 2
    21   11   18 1
    22   12   19 1
    23   12   26 1
    24   15   21 2
    25   16   18 2
    26   19   25 2
    27   21   22 1
    28   21   25 1
    29    8   27 1
    30    9   28 1
    31   15   29 1
    32   16   30 1
    33   17   31 1
    34   18   32 1
    35   19   33 1
    36   20   34 1
    37   22   35 1
    38   22   36 1
    39   24   37 1
    40   25   38 1
    41   26   39 1
@<TRIPOS>PROPERTY_DATA
  Total_Score	| 3.7638
  Crash		| -3.9239
  Polar		| 1.1720
  FragIndex	| 1
  FragRMSD	| 1.184

