@<TRIPOS>MOLECULE
BindingDB_50145364
 39 41 0 0 0
SMALL
NO_CHARGES


@<TRIPOS>ATOM
1    C        23.6256   37.7327   -0.5461  C     
2    N        22.7654   34.2948    0.5312  N     
3    C        23.2678   36.3508   -0.6175  C     
4    C        23.1108   35.6042    0.5726  C     
5    C        23.7580   38.6019   -1.6701  C     
6    C        22.5647   33.5154    1.5854  C     
7    C        22.1515   32.2254    1.3562  C     
8    C        23.8523   38.2809    0.7472  C     
9    N        22.0719   31.7913    0.0999  N     
10   C        23.2719   36.1890    1.8465  C     
11   C        22.8568   29.7950   -4.5127  C     
12   O        23.6908   38.1558   -2.9511  O     
13   O        21.8249   31.4908    2.2843  O     
14   C        23.0917   28.8203   -3.5270  C     
15   C        22.2372   31.0103   -4.1671  C     
16   C        22.7132   34.0843    2.8317  C     
17   C        23.6582   37.5361    1.9247  C     
18   C        22.0935   30.2912   -1.8140  C     
19   C        23.0371   35.3885    2.9666  C     
20   O        23.0442   35.6747   -1.7786  O     
21   C        21.6215   30.5351   -0.4138  C     
22   C        22.7336   29.0844   -2.1875  C     
23   C        21.8321   31.2374   -2.8355  C     
24   O        23.8345   39.9524   -1.4999  O     
25   O        23.6291   27.6144   -3.8556  O     
26   O        22.0101   31.9208   -5.1485  O     
27   H        24.1628   39.2500    0.8668  H     
28   H        22.2802   32.4558   -0.5607  H     
29   H        23.1140   29.6174   -5.4867  H     
30   H        22.5825   33.5405    3.6507  H     
31   H        23.7935   37.9855    2.8323  H     
32   H        23.0997   35.7830    3.8762  H     
33   H        22.5334   36.2670   -2.3843  H     
34   H        21.8878   29.7209    0.2602  H     
35   H        20.5328   30.5857   -0.4380  H     
36   H        22.9317   28.3642   -1.4878  H     
37   H        21.3314   32.1002   -2.6087  H     
38   H        24.1919   27.7586   -4.6475  H     
39   H        21.4889   32.6440   -4.7496  H     
@<TRIPOS>BOND
     1    1    3 1
     2    1    5 1
     3    1    8 2
     4    2    4 1
     5    2    6 2
     6    3    4 2
     7    3   20 1
     8    4   10 1
     9    5   12 2
    10    5   24 1
    11    6    7 1
    12    6   16 1
    13    7    9 am
    14    7   13 2
    15    8   17 1
    16    9   21 1
    17   10   17 2
    18   10   19 1
    19   11   14 2
    20   11   15 1
    21   14   22 1
    22   14   25 1
    23   15   23 2
    24   15   26 1
    25   16   19 2
    26   18   21 1
    27   18   22 2
    28   18   23 1
    29    8   27 1
    30    9   28 1
    31   11   29 1
    32   16   30 1
    33   17   31 1
    34   19   32 1
    35   20   33 1
    36   21   34 1
    37   21   35 1
    38   22   36 1
    39   23   37 1
    40   25   38 1
    41   26   39 1
@<TRIPOS>PROPERTY_DATA
  Total_Score	| 3.8967
  Crash		| -3.6672
  Polar		| 1.1831
  FragIndex	| 1
  FragRMSD	| 1.178

