@<TRIPOS>MOLECULE
BindingDB_50087421
 34 36 0 0 0
SMALL
NO_CHARGES


@<TRIPOS>ATOM
1    C        23.3236   36.6897   -1.9430  C     
2    C        23.1531   35.6156   -1.0220  C     
3    C        23.1851   35.8507    0.3716  C     
4    N        22.9463   34.8524    1.2826  N     
5    C        23.1731   36.5483   -3.3625  C     
6    C        23.6364   37.9765   -1.4310  C     
7    C        22.7808   34.0295    3.4772  C     
8    C        22.7163   32.7313    3.1440  C     
9    C        23.4653   37.1550    0.8705  C     
10   C        22.9648   35.0548    2.6007  C     
11   O        22.8902   35.3486   -3.9445  O     
12   C        23.7089   38.2046   -0.0437  C     
13   C        23.5064   37.3454    2.2410  C     
14   O        22.9398   34.3335   -1.4361  O     
15   O        23.2285   37.6125   -4.1989  O     
16   C        22.8589   31.7537    4.1035  C     
17   C        23.2641   36.3192    3.0814  C     
18   C        24.1218   31.5516    4.7065  C     
19   C        21.7600   30.9540    4.4815  C     
20   C        21.9489   29.8984    5.3830  C     
21   C        24.3075   30.4925    5.6026  C     
22   C        23.2301   29.6369    5.8986  C     
23   H        23.7900   38.7737   -2.0628  H     
24   H        22.7656   34.2626    4.4476  H     
25   H        22.6731   32.4584    2.1941  H     
26   H        23.9238   39.1522    0.2782  H     
27   H        23.6994   38.2495    2.6049  H     
28   H        23.7141   34.1225   -2.0091  H     
29   H        23.3045   36.5068    4.0621  H     
30   H        24.9167   32.1451    4.4571  H     
31   H        20.8264   31.1387    4.1024  H     
32   H        21.1551   29.3192    5.6531  H     
33   H        25.2271   30.3311    6.0173  H     
34   H        23.3579   28.8282    6.5216  H     
@<TRIPOS>BOND
     1    1    2 1
     2    1    5 1
     3    1    6 2
     4    2    3 2
     5    2   14 1
     6    3    4 1
     7    3    9 1
     8    4   10 2
     9    5   11 2
    10    5   15 1
    11    6   12 1
    12    7    8 2
    13    7   10 1
    14    8   16 1
    15    9   12 2
    16    9   13 1
    17   10   17 1
    18   13   17 2
    19   16   18 2
    20   16   19 1
    21   18   21 1
    22   19   20 2
    23   20   22 1
    24   21   22 2
    25    6   23 1
    26    7   24 1
    27    8   25 1
    28   12   26 1
    29   13   27 1
    30   14   28 1
    31   17   29 1
    32   18   30 1
    33   19   31 1
    34   20   32 1
    35   21   33 1
    36   22   34 1
@<TRIPOS>PROPERTY_DATA
  Total_Score	| 0.5705
  Crash		| -6.9889
  Polar		| 0.0000
  FragIndex	| 1
  FragRMSD	| 1.299

