@<TRIPOS>MOLECULE
BindingDB_50145360
 43 45 0 0 0
SMALL
NO_CHARGES


@<TRIPOS>ATOM
1    C        23.7431   37.7284   -0.5523  C     
2    N        22.8158   34.3489    0.5843  N     
3    C        23.4089   36.3549   -0.5926  C     
4    C        23.1864   35.6439    0.6073  C     
5    C        22.9077   29.4207   -4.1951  C     
6    C        23.8806   38.5073   -1.7286  C     
7    C        22.5497   33.6040    1.6584  C     
8    C        22.1247   32.3235    1.4322  C     
9    C        22.7417   28.4906   -3.1503  C     
10   C        22.6411   30.7894   -3.9698  C     
11   C        23.9147   38.3463    0.7159  C     
12   N        21.8469   31.9369    0.1907  N     
13   C        23.3127   36.2788    1.8650  C     
14   C        22.3045   28.9446   -1.8898  C     
15   C        22.1946   31.2307   -2.7093  C     
16   C        22.0160   30.2980   -1.6303  C     
17   O        23.6481   39.8410   -1.7081  O     
18   O        21.9797   31.5261    2.3539  O     
19   C        22.6719   34.2101    2.8952  C     
20   C        23.6990   37.6318    1.9114  C     
21   C        23.0328   35.5042    3.0070  C     
22   O        23.2458   35.7002   -1.7759  O     
23   C        21.4243   30.6614   -0.3103  C     
24   O        23.3043   28.9889   -5.4183  O     
25   O        24.1199   37.9514   -2.9446  O     
26   O        22.9598   27.1746   -3.3291  O     
27   O        22.9225   31.6407   -5.0317  O     
28   C        22.2522   32.9134   -5.1359  C     
29   H        24.1997   39.3210    0.7819  H     
30   H        21.9129   32.6354   -0.4848  H     
31   H        22.1499   28.2495   -1.1555  H     
32   H        21.9947   32.2267   -2.5901  H     
33   H        22.4902   33.6952    3.7297  H     
34   H        23.8149   38.1152    2.8066  H     
35   H        23.0955   35.9297    3.9070  H     
36   H        23.6556   34.8187   -1.6449  H     
37   H        21.6265   29.8797    0.4310  H     
38   H        20.3408   30.7126   -0.4297  H     
39   H        23.3584   28.0121   -5.3780  H     
40   H        22.7043   26.7535   -2.4809  H     
41   H        21.1652   32.7796   -5.0948  H     
42   H        22.5144   33.3816   -6.0954  H     
43   H        22.5770   33.5456   -4.2989  H     
@<TRIPOS>BOND
     1    1    3 1
     2    1    6 1
     3    1   11 2
     4    2    4 1
     5    2    7 2
     6    3    4 2
     7    3   22 1
     8    4   13 1
     9    5    9 1
    10    5   10 2
    11    5   24 1
    12    6   17 2
    13    6   25 1
    14    7    8 1
    15    7   19 1
    16    8   12 am
    17    8   18 2
    18    9   14 2
    19    9   26 1
    20   10   15 1
    21   10   27 1
    22   11   20 1
    23   12   23 1
    24   13   20 2
    25   13   21 1
    26   14   16 1
    27   15   16 2
    28   16   23 1
    29   19   21 2
    30   27   28 1
    31   11   29 1
    32   12   30 1
    33   14   31 1
    34   15   32 1
    35   19   33 1
    36   20   34 1
    37   21   35 1
    38   22   36 1
    39   23   37 1
    40   23   38 1
    41   24   39 1
    42   26   40 1
    43   28   41 1
    44   28   42 1
    45   28   43 1
@<TRIPOS>PROPERTY_DATA
  Total_Score	| 3.3364
  Crash		| -5.3296
  Polar		| 2.2648
  FragIndex	| 1
  FragRMSD	| 1.155

