@<TRIPOS>MOLECULE
BindingDB_50317347
 37 39 0 0 0
SMALL
NO_CHARGES


@<TRIPOS>ATOM
1    C        21.9315   30.8020   -1.4300  C     
2    C        21.5113   31.7865   -2.3556  C     
3    C        22.1557   31.9299   -3.5988  C     
4    C        23.2332   31.0875   -3.9436  C     
5    C        23.6250   30.0734   -3.0524  C     
6    C        22.9830   29.9345   -1.8078  C     
7    O        23.8738   31.2512   -5.1327  O     
8    C        24.1412   38.2412    0.4873  C     
9    C        23.8620   37.5687   -0.7142  C     
10   C        23.3538   36.2466   -0.7148  C     
11   C        23.9069   37.6164    1.7224  C     
12   C        23.3999   36.3018    1.7677  C     
13   C        23.1289   35.6253    0.5451  C     
14   N        22.6458   34.3601    0.6516  N     
15   C        22.4082   33.7175    1.7891  C     
16   C        22.6926   34.3539    2.9731  C     
17   C        23.1659   35.6196    2.9723  C     
18   C        21.9544   32.4450    1.6818  C     
19   N        21.4540   32.0766    0.5106  N     
20   O        22.2693   31.6277    2.5382  O     
21   C        21.3503   30.7703   -0.0612  C     
22   C        23.1156   35.5956   -1.9595  C     
23   O        22.8790   34.2667   -2.0411  O     
24   O        23.2783   36.2292   -3.1420  O     
25   H        20.7575   32.4275   -2.1147  H     
26   H        21.8612   32.6681   -4.2421  H     
27   H        24.4020   29.4476   -3.2945  H     
28   H        23.3270   29.2198   -1.1656  H     
29   H        24.8180   30.9974   -4.9733  H     
30   H        24.5268   39.1880    0.4532  H     
31   H        24.0514   38.0621   -1.5906  H     
32   H        24.1048   38.1258    2.5859  H     
33   H        22.5546   33.8887    3.8428  H     
34   H        23.3520   36.0636    3.8428  H     
35   H        21.2378   32.8095   -0.0856  H     
36   H        20.2974   30.4929   -0.1251  H     
37   H        21.8491   30.0276    0.5595  H     
@<TRIPOS>BOND
     1    1    2 2
     2    1    6 1
     3    1   21 1
     4    2    3 1
     5    3    4 2
     6    4    5 1
     7    4    7 1
     8    5    6 2
     9    8    9 2
    10    8   11 1
    11    9   10 1
    12   10   13 2
    13   10   22 1
    14   11   12 2
    15   12   13 1
    16   12   17 1
    17   13   14 1
    18   14   15 2
    19   15   16 1
    20   15   18 1
    21   16   17 2
    22   18   19 am
    23   18   20 2
    24   19   21 1
    25   22   23 1
    26   22   24 2
    27    2   25 1
    28    3   26 1
    29    5   27 1
    30    6   28 1
    31    7   29 1
    32    8   30 1
    33    9   31 1
    34   11   32 1
    35   16   33 1
    36   17   34 1
    37   19   35 1
    38   21   36 1
    39   21   37 1
@<TRIPOS>PROPERTY_DATA
  Total_Score	| 5.5719
  Crash		| -2.4382
  Polar		| 1.7884
  FragIndex	| 1
  FragRMSD	| 1.087

