@<TRIPOS>MOLECULE
BindingDB_50383268
 22 23 0 0 0
SMALL
NO_CHARGES


@<TRIPOS>ATOM
1    C        23.5389   36.9457   -0.9572  C     
2    C        23.7158   37.8852    0.0761  C     
3    C        23.5885   37.4876    1.4215  C     
4    C        23.2379   35.6049   -0.6496  C     
5    O        23.0927   34.7207   -1.6734  O     
6    C        23.0948   35.2104    0.6967  C     
7    C        23.2756   36.1534    1.7412  C     
8    C        23.1274   35.7026    3.0531  C     
9    C        22.8128   34.4184    3.3141  C     
10   C        22.6222   33.5094    2.2918  C     
11   N        22.7742   33.9323    1.0367  N     
12   C        22.2824   32.1978    2.4966  C     
13   N        22.2605   31.6336    3.6878  N     
14   O        21.9903   31.4666    1.5583  O     
15   H        23.6256   37.2430   -1.9312  H     
16   H        23.9364   38.8577   -0.1531  H     
17   H        23.7173   38.1849    2.1581  H     
18   H        22.9617   33.8453   -1.2476  H     
19   H        23.2573   36.3339    3.8124  H     
20   H        22.7282   34.1504    4.2673  H     
21   H        22.0322   30.6926    3.7802  H     
22   H        22.4693   32.1547    4.4794  H     
@<TRIPOS>BOND
     1    1    2 2
     2    1    4 1
     3    2    3 1
     4    3    7 2
     5    4    5 1
     6    4    6 2
     7    6    7 1
     8    6   11 1
     9    7    8 1
    10    8    9 2
    11    9   10 1
    12   10   11 2
    13   10   12 1
    14   12   13 am
    15   12   14 2
    16    1   15 1
    17    2   16 1
    18    3   17 1
    19    5   18 1
    20    8   19 1
    21    9   20 1
    22   13   21 1
    23   13   22 1
@<TRIPOS>PROPERTY_DATA
  Total_Score	| 4.8421
  Crash		| -0.4265
  Polar		| 1.3340
  FragIndex	| 1
  FragRMSD	| 0.201

