@<TRIPOS>MOLECULE
BindingDB_50145366
 36 38 0 0 0
SMALL
NO_CHARGES


@<TRIPOS>ATOM
1    C        23.6472   37.5514   -0.7665  C     
2    N        22.7299   34.1893    0.4362  N     
3    C        23.3056   36.1729   -0.7823  C     
4    C        23.1019   35.4912    0.4306  C     
5    C        22.1552   32.1414    1.3245  C     
6    C        22.5050   33.4533    1.5233  C     
7    C        23.7914   38.3190   -1.9572  C     
8    N        21.6763   31.7962    0.1372  N     
9    C        23.8296   38.1814    0.4925  C     
10   C        23.2696   36.1296    1.6841  C     
11   N        21.6584   30.6087   -0.4063  N     
12   O        22.3993   31.2800    2.1622  O     
13   O        23.7408   37.7666   -3.1922  O     
14   C        22.6799   34.0626    2.7576  C     
15   C        23.6574   37.4819    1.7027  C     
16   C        23.0460   35.3622    2.8391  C     
17   O        23.1173   35.4804   -1.9369  O     
18   O        23.8625   39.6677   -1.9250  O     
19   C        22.1673   30.3699   -1.6431  C     
20   C        22.2092   29.0164   -2.0690  C     
21   C        22.6872   31.3591   -2.5170  C     
22   C        23.2559   31.0054   -3.7549  C     
23   C        22.7709   28.6575   -3.3037  C     
24   C        23.2890   29.6524   -4.1499  C     
25   H        21.4749   32.5235   -0.4618  H     
26   H        24.1126   39.1617    0.5408  H     
27   H        21.3791   29.8428    0.1251  H     
28   H        22.5302   33.5521    3.5979  H     
29   H        23.7856   37.9748    2.5886  H     
30   H        23.1571   35.7843    3.7355  H     
31   H        23.9268   35.6341   -2.4655  H     
32   H        21.8325   28.2850   -1.4673  H     
33   H        22.6813   32.3493   -2.2505  H     
34   H        23.6288   31.7259   -4.3746  H     
35   H        22.8013   27.6741   -3.5872  H     
36   H        23.7022   29.3991   -5.0451  H     
@<TRIPOS>BOND
     1    1    3 1
     2    1    7 1
     3    1    9 2
     4    2    4 1
     5    2    6 2
     6    3    4 2
     7    3   17 1
     8    4   10 1
     9    5    6 1
    10    5    8 am
    11    5   12 2
    12    6   14 1
    13    7   13 2
    14    7   18 1
    15    8   11 1
    16    9   15 1
    17   10   15 2
    18   10   16 1
    19   11   19 1
    20   14   16 2
    21   19   20 2
    22   19   21 1
    23   20   23 1
    24   21   22 2
    25   22   24 1
    26   23   24 2
    27    8   25 1
    28    9   26 1
    29   11   27 1
    30   14   28 1
    31   15   29 1
    32   16   30 1
    33   17   31 1
    34   20   32 1
    35   21   33 1
    36   22   34 1
    37   23   35 1
    38   24   36 1
@<TRIPOS>PROPERTY_DATA
  Total_Score	| 3.6021
  Crash		| -2.7986
  Polar		| 0.9250
  FragIndex	| 1
  FragRMSD	| 1.169

