@<TRIPOS>MOLECULE
BindingDB_14974
 69 72 0 0 0
SMALL
NO_CHARGES


@<TRIPOS>ATOM
1    C        52.5931    2.4822   67.8368  C     
2    C        53.4487    2.4071   68.9530  C     
3    C        54.6325    3.1901   68.9532  C     
4    C        54.9606    4.0336   67.8652  C     
5    C        54.0578    4.0922   66.7768  C     
6    C        52.8612    3.3404   66.7541  C     
7    N        53.0961    1.5076   69.9342  N     
8    C        53.4629    1.4380   71.2171  C     
9    O        54.0773    2.3890   71.6924  O     
10   C        53.0637    0.3697   72.0457  C     
11   C        52.0476   -1.8531   72.3922  C     
12   C        52.2989   -1.7897   73.7876  C     
13   C        52.9122   -0.6354   74.3188  C     
14   C        53.3027    0.4104   73.4465  C     
15   C        52.4285   -0.7908   71.5441  C     
16   C        51.8825   -2.9428   74.6345  C     
17   N        53.0248   -0.4365   75.6590  N     
18   C        54.0986   -0.7093   76.4280  C     
19   C        55.2480   -0.7742   78.5403  C     
20   C        56.1766   -1.6841   78.0084  C     
21   C        56.0614   -2.0717   76.6661  C     
22   N        55.0355   -1.5713   75.9346  N     
23   C        54.1766   -0.2428   77.7698  C     
24   C        53.2730    0.7248   78.3691  C     
25   C        53.0795    2.4942   79.9936  C     
26   C        51.2074    2.0080   78.6493  C     
27   C        51.9226    0.9900   77.9865  C     
28   N        51.7984    2.7454   79.6295  N     
29   N        53.7783    1.5110   79.3740  N     
30   C        56.2179    4.8442   67.8867  C     
31   F        56.4188    5.6337   66.7814  F     
32   F        56.2038    5.6898   68.9633  F     
33   F        57.3100    4.0242   67.9875  F     
34   C        51.8991    3.4380   65.6180  C     
35   C        50.3989    3.3169   66.0275  C     
36   C        49.4181    3.9748   65.0136  C     
37   N        48.7742    3.0428   64.0276  N     
38   C        47.6207    2.2709   64.5884  C     
39   C        48.3780    3.7383   62.7618  C     
40   H        51.7457    1.9174   67.8159  H     
41   H        55.2794    3.1203   69.7395  H     
42   H        54.2785    4.6886   65.9752  H     
43   H        52.4154    0.8764   69.6608  H     
44   H        51.6002   -2.6761   71.9849  H     
45   H        53.7326    1.2374   73.8606  H     
46   H        52.2304   -0.8945   70.5446  H     
47   H        50.7925   -3.0132   74.6353  H     
48   H        52.2164   -2.8419   75.6678  H     
49   H        52.2978   -3.8766   74.2385  H     
50   H        52.2406   -0.1354   76.1405  H     
51   H        55.3816   -0.4914   79.5100  H     
52   H        56.9393   -2.0539   78.5833  H     
53   H        56.7188   -2.7453   76.2571  H     
54   H        53.5181    3.0566   80.7218  H     
55   H        50.2316    2.2209   78.3990  H     
56   H        51.4323    0.4996   77.2220  H     
57   H        52.0320    4.3931   65.1039  H     
58   H        52.1338    2.6535   64.8998  H     
59   H        50.1393    2.2621   66.1454  H     
60   H        50.2536    3.7883   67.0033  H     
61   H        48.6522    4.5256   65.5659  H     
62   H        50.0050    4.7271   64.4657  H     
63   H        49.4810    2.3594   63.7685  H     
64   H        47.9504    1.6488   65.4229  H     
65   H        47.2057    1.5990   63.8295  H     
66   H        46.8323    2.9414   64.9426  H     
67   H        47.6197    4.5001   62.9497  H     
68   H        47.9866    3.0179   62.0353  H     
69   H        49.2511    4.2133   62.3046  H     
@<TRIPOS>BOND
     1    1    2 1
     2    1    6 2
     3    2    3 2
     4    2    7 1
     5    3    4 1
     6    4    5 2
     7    4   30 1
     8    5    6 1
     9    6   34 1
    10    7    8 am
    11    8    9 2
    12    8   10 1
    13   10   14 1
    14   10   15 2
    15   11   12 2
    16   11   15 1
    17   12   13 1
    18   12   16 1
    19   13   14 2
    20   13   17 1
    21   17   18 1
    22   18   22 2
    23   18   23 1
    24   19   20 1
    25   19   23 2
    26   20   21 2
    27   21   22 1
    28   23   24 1
    29   24   27 1
    30   24   29 2
    31   25   28 2
    32   25   29 1
    33   26   27 2
    34   26   28 1
    35   30   31 1
    36   30   32 1
    37   30   33 1
    38   34   35 1
    39   35   36 1
    40   36   37 1
    41   37   38 1
    42   37   39 1
    43    1   40 1
    44    3   41 1
    45    5   42 1
    46    7   43 1
    47   11   44 1
    48   14   45 1
    49   15   46 1
    50   16   47 1
    51   16   48 1
    52   16   49 1
    53   17   50 1
    54   19   51 1
    55   20   52 1
    56   21   53 1
    57   25   54 1
    58   26   55 1
    59   27   56 1
    60   34   57 1
    61   34   58 1
    62   35   59 1
    63   35   60 1
    64   36   61 1
    65   36   62 1
    66   37   63 1
    67   38   64 1
    68   38   65 1
    69   38   66 1
    70   39   67 1
    71   39   68 1
    72   39   69 1
@<TRIPOS>PROPERTY_DATA
  Total_Score	| 10.3095
  Crash		| -2.2299
  Polar		| 2.1031
  FragIndex	| 1
  FragRMSD	| 0.840

