@<TRIPOS>MOLECULE
BindingDB_50237710
 61 65 0 0 0
SMALL
NO_CHARGES


@<TRIPOS>ATOM
1    C        53.9927    4.6173   67.1337  C     
2    C        54.9552    4.3610   68.1390  C     
3    C        54.6876    3.3422   69.0805  C     
4    C        53.4928    2.5864   69.0211  C     
5    C        52.5763    2.8499   67.9841  C     
6    C        52.7865    3.8726   67.0179  C     
7    C        56.2003    5.1820   68.1858  C     
8    F        57.1843    4.6570   68.9955  F     
9    F        56.7686    5.3201   66.9386  F     
10   F        55.9000    6.4406   68.6505  F     
11   N        51.8591    4.1253   66.0044  N     
12   C        50.8668    3.3120   65.5646  C     
13   C        50.1829    3.9386   64.5296  C     
14   N        50.7548    5.1349   64.3368  N     
15   C        51.7524    5.2392   65.2265  C     
16   C        49.0420    3.4046   63.7804  C     
17   N        53.2022    1.5223   69.8255  N     
18   C        53.6294    1.2072   71.0392  C     
19   C        53.4289   -0.0748   71.5636  C     
20   O        54.2178    2.0577   71.7094  O     
21   C        53.5356   -0.3354   72.9487  C     
22   C        53.4207   -1.6434   73.4802  C     
23   C        53.1786   -2.7356   72.6069  C     
24   C        53.0410   -2.4890   71.2280  C     
25   C        53.1463   -1.1868   70.7181  C     
26   C        53.0832   -4.1280   73.1246  C     
27   N        53.6085   -1.8471   74.8096  N     
28   C        52.8453   -1.3279   75.7988  C     
29   N        51.7585   -0.5393   75.5718  N     
30   C        50.9861   -0.0655   76.5866  C     
31   C        51.3024   -0.4004   77.9103  C     
32   C        52.4496   -1.1932   78.1401  C     
33   N        53.1744   -1.6311   77.0769  N     
34   C        52.8792   -1.5215   79.4381  C     
35   C        52.2349   -2.5237   80.2035  C     
36   C        52.6951   -2.8399   81.4899  C     
37   C        53.7837   -2.1209   82.0211  C     
38   N        54.3836   -1.1522   81.2788  N     
39   C        53.9803   -0.8492   80.0237  C     
40   H        54.1993    5.3633   66.4648  H     
41   H        55.3817    3.1222   69.7978  H     
42   H        51.7207    2.2904   67.9526  H     
43   H        50.6353    2.3733   65.9031  H     
44   H        52.3352    6.0729   65.2762  H     
45   H        49.3030    2.4382   63.3420  H     
46   H        48.7563    4.0918   62.9805  H     
47   H        48.1920    3.2733   64.4538  H     
48   H        52.5608    0.8995   69.4411  H     
49   H        53.7206    0.4367   73.5961  H     
50   H        52.8873   -3.2582   70.5773  H     
51   H        53.0697   -1.0702   69.7049  H     
52   H        54.0692   -4.4705   73.4448  H     
53   H        52.7061   -4.8093   72.3682  H     
54   H        52.4069   -4.1658   73.9795  H     
55   H        54.2885   -2.4790   75.0725  H     
56   H        50.1832    0.5322   76.3867  H     
57   H        50.7381   -0.0463   78.6964  H     
58   H        51.4363   -3.0412   79.8121  H     
59   H        52.2467   -3.5823   82.0396  H     
60   H        54.1351   -2.3272   82.9552  H     
61   H        54.4664   -0.1065   79.5118  H     
@<TRIPOS>BOND
     1    1    2 2
     2    1    6 1
     3    2    3 1
     4    2    7 1
     5    3    4 2
     6    4    5 1
     7    4   17 1
     8    5    6 2
     9    6   11 1
    10    7    8 1
    11    7    9 1
    12    7   10 1
    13   11   12 1
    14   11   15 1
    15   12   13 2
    16   13   14 1
    17   13   16 1
    18   14   15 2
    19   17   18 am
    20   18   19 1
    21   18   20 2
    22   19   21 2
    23   19   25 1
    24   21   22 1
    25   22   23 2
    26   22   27 1
    27   23   24 1
    28   23   26 1
    29   24   25 2
    30   27   28 1
    31   28   29 2
    32   28   33 1
    33   29   30 1
    34   30   31 2
    35   31   32 1
    36   32   33 2
    37   32   34 1
    38   34   35 2
    39   34   39 1
    40   35   36 1
    41   36   37 2
    42   37   38 1
    43   38   39 2
    44    1   40 1
    45    3   41 1
    46    5   42 1
    47   12   43 1
    48   15   44 1
    49   16   45 1
    50   16   46 1
    51   16   47 1
    52   17   48 1
    53   21   49 1
    54   24   50 1
    55   25   51 1
    56   26   52 1
    57   26   53 1
    58   26   54 1
    59   27   55 1
    60   30   56 1
    61   31   57 1
    62   35   58 1
    63   36   59 1
    64   37   60 1
    65   39   61 1
@<TRIPOS>PROPERTY_DATA
  Total_Score	| 7.4013
  Crash		| -1.2856
  Polar		| 2.1235
  FragIndex	| 1
  FragRMSD	| 0.685

