@<TRIPOS>MOLECULE
BindingDB_14971
 51 54 0 0 0
SMALL
NO_CHARGES


@<TRIPOS>ATOM
1    C        52.8116    2.4704   67.7168  C     
2    C        53.6104    2.4227   68.8798  C     
3    C        54.7717    3.2392   68.9186  C     
4    C        55.1188    4.1045   67.8483  C     
5    C        54.2915    4.1151   66.7036  C     
6    C        53.1476    3.3017   66.6370  C     
7    C        56.3393    4.9563   67.9542  C     
8    F        56.5634    5.7726   66.8663  F     
9    F        56.2484    5.7772   69.0524  F     
10   F        57.4523    4.1610   68.0923  F     
11   N        53.2246    1.5066   69.8370  N     
12   C        53.5417    1.4210   71.1332  C     
13   O        54.1268    2.3663   71.6554  O     
14   C        53.1286    0.3522   71.9584  C     
15   C        51.9574   -1.7925   72.3101  C     
16   C        52.3070   -1.8141   73.6772  C     
17   C        53.0685   -0.7348   74.1902  C     
18   C        53.4879    0.3068   73.3336  C     
19   C        52.3526   -0.7297   71.4705  C     
20   C        51.8963   -2.9868   74.4944  C     
21   N        53.4584   -0.6673   75.4962  N     
22   C        52.6744   -0.3022   76.5435  C     
23   C        52.3317    0.2572   78.8822  C     
24   C        51.0240    0.6710   78.5892  C     
25   C        50.5602    0.5667   77.2705  C     
26   N        51.3903    0.0950   76.3110  N     
27   C        53.1826   -0.2600   77.8726  C     
28   C        54.4950   -0.6964   78.2314  C     
29   C        56.2594   -0.6505   79.8383  C     
30   C        56.5655   -1.9021   77.8627  C     
31   C        55.2670   -1.5729   77.4321  C     
32   N        57.0293   -1.4386   79.0513  N     
33   N        55.0256   -0.2838   79.4176  N     
34   H        51.9679    1.8925   67.6493  H     
35   H        55.4014    3.1905   69.7220  H     
36   H        54.5039    4.7135   65.9023  H     
37   H        52.5550    3.3167   65.8018  H     
38   H        52.5914    0.8422   69.5243  H     
39   H        51.4108   -2.5661   71.9094  H     
40   H        54.0787    1.0409   73.7294  H     
41   H        52.0820   -0.7767   70.4867  H     
42   H        50.8089   -3.0439   74.5280  H     
43   H        52.2640   -2.9371   75.5207  H     
44   H        52.2885   -3.9049   74.0485  H     
45   H        54.3939   -0.8742   75.6810  H     
46   H        52.6590    0.3370   79.8524  H     
47   H        50.4113    1.0303   79.3294  H     
48   H        49.6126    0.8560   77.0254  H     
49   H        56.6105   -0.3208   80.7391  H     
50   H        57.1654   -2.4940   77.2876  H     
51   H        54.9013   -1.9486   76.5539  H     
@<TRIPOS>BOND
     1    1    2 1
     2    1    6 2
     3    2    3 2
     4    2   11 1
     5    3    4 1
     6    4    5 2
     7    4    7 1
     8    5    6 1
     9    7    8 1
    10    7    9 1
    11    7   10 1
    12   11   12 am
    13   12   13 2
    14   12   14 1
    15   14   18 1
    16   14   19 2
    17   15   16 2
    18   15   19 1
    19   16   17 1
    20   16   20 1
    21   17   18 2
    22   17   21 1
    23   21   22 1
    24   22   26 2
    25   22   27 1
    26   23   24 1
    27   23   27 2
    28   24   25 2
    29   25   26 1
    30   27   28 1
    31   28   31 1
    32   28   33 2
    33   29   32 2
    34   29   33 1
    35   30   31 2
    36   30   32 1
    37    1   34 1
    38    3   35 1
    39    5   36 1
    40    6   37 1
    41   11   38 1
    42   15   39 1
    43   18   40 1
    44   19   41 1
    45   20   42 1
    46   20   43 1
    47   20   44 1
    48   21   45 1
    49   23   46 1
    50   24   47 1
    51   25   48 1
    52   29   49 1
    53   30   50 1
    54   31   51 1
@<TRIPOS>PROPERTY_DATA
  Total_Score	| 9.3577
  Crash		| -1.3553
  Polar		| 3.1077
  FragIndex	| 1
  FragRMSD	| 0.392

