@<TRIPOS>MOLECULE
BindingDB_35318
 54 58 0 0 0
SMALL
NO_CHARGES


@<TRIPOS>ATOM
1    N        55.4854   -2.3396   79.3313  N     
2    C        55.7134   -2.2558   77.9930  C     
3    C        54.6662   -1.9188   77.1072  C     
4    C        53.3580   -1.6936   77.6345  C     
5    N        53.2311   -1.7970   78.9983  N     
6    C        54.2477   -2.1097   79.8385  C     
7    C        52.1826   -1.3356   76.8627  C     
8    C        51.0127   -0.8959   77.5535  C     
9    C        49.8422   -0.4944   76.8905  C     
10   C        49.8085   -0.5418   75.4886  C     
11   N        50.9112   -0.9732   74.8299  N     
12   C        52.0759   -1.3659   75.4338  C     
13   N        53.1030   -1.8134   74.6627  N     
14   C        53.1676   -1.6839   73.2950  C     
15   C        53.1945   -2.8579   72.4975  C     
16   C        53.2966   -0.4062   72.6684  C     
17   C        53.2984   -0.2917   71.2478  C     
18   C        53.2138   -1.4726   70.4717  C     
19   C        53.1795   -2.7372   71.0884  C     
20   C        53.2316   -4.2044   73.1391  C     
21   C        53.4847    0.7636   73.4169  C     
22   C        53.6220    1.9663   72.8342  C     
23   N        53.5956    2.0799   71.5107  N     
24   C        53.4246    1.0180   70.6731  C     
25   N        53.3279    1.2247   69.3432  N     
26   C        53.5249    2.3956   68.6958  C     
27   C        52.5649    2.7311   67.7294  C     
28   C        52.7429    3.8590   66.9212  C     
29   C        53.9043    4.6387   67.0441  C     
30   C        54.9294    4.2863   67.9581  C     
31   C        54.7119    3.1673   68.7998  C     
32   C        56.1805    5.0988   68.0239  C     
33   F        57.2509    4.4136   68.5569  F     
34   F        56.5937    5.5159   66.7761  F     
35   F        55.9637    6.2196   68.7928  F     
36   H        56.6607   -2.4347   77.6380  H     
37   H        54.8604   -1.8410   76.0802  H     
38   H        54.0905   -2.1816   80.8537  H     
39   H        50.9858   -0.8407   78.5743  H     
40   H        49.0217   -0.1635   77.4157  H     
41   H        48.9636   -0.2600   74.9694  H     
42   H        53.8596   -2.2553   75.1333  H     
43   H        53.2188   -1.4285   69.4492  H     
44   H        53.1585   -3.5704   70.4901  H     
45   H        54.1506   -4.3167   73.7232  H     
46   H        53.1963   -5.0206   72.4170  H     
47   H        52.3807   -4.3139   73.8157  H     
48   H        53.5303    0.7274   74.3993  H     
49   H        53.7176    2.7914   73.3882  H     
50   H        53.0274    0.4760   68.8021  H     
51   H        51.7346    2.1464   67.6125  H     
52   H        52.0260    4.1103   66.2396  H     
53   H        54.0022    5.4625   66.4470  H     
54   H        55.4437    2.8807   69.4537  H     
@<TRIPOS>BOND
     1    1    2 1
     2    1    6 2
     3    2    3 2
     4    3    4 1
     5    4    5 2
     6    4    7 1
     7    5    6 1
     8    7    8 1
     9    7   12 2
    10    8    9 2
    11    9   10 1
    12   10   11 2
    13   11   12 1
    14   12   13 1
    15   13   14 1
    16   14   15 1
    17   14   16 2
    18   15   19 2
    19   15   20 1
    20   16   17 1
    21   16   21 1
    22   17   18 2
    23   17   24 1
    24   18   19 1
    25   21   22 2
    26   22   23 1
    27   23   24 2
    28   24   25 1
    29   25   26 1
    30   26   27 1
    31   26   31 2
    32   27   28 2
    33   28   29 1
    34   29   30 2
    35   30   31 1
    36   30   32 1
    37   32   33 1
    38   32   34 1
    39   32   35 1
    40    2   36 1
    41    3   37 1
    42    6   38 1
    43    8   39 1
    44    9   40 1
    45   10   41 1
    46   13   42 1
    47   18   43 1
    48   19   44 1
    49   20   45 1
    50   20   46 1
    51   20   47 1
    52   21   48 1
    53   22   49 1
    54   25   50 1
    55   27   51 1
    56   28   52 1
    57   29   53 1
    58   31   54 1
@<TRIPOS>PROPERTY_DATA
  Total_Score	| 6.4031
  Crash		| -2.4743
  Polar		| 1.0761
  FragIndex	| 1
  FragRMSD	| 0.633

