@<TRIPOS>MOLECULE
BindingDB_50207861
 51 54 0 0 0
SMALL
NO_CHARGES


@<TRIPOS>ATOM
1    C        53.7879    2.5458   69.2819  C     
2    C        54.8554    3.4763   69.1699  C     
3    C        55.1016    4.2042   67.9778  C     
4    C        54.2347    3.9988   66.8768  C     
5    C        53.1623    3.0980   66.9677  C     
6    C        52.9412    2.3818   68.1572  C     
7    C        56.2562    5.1448   67.9190  C     
8    F        56.4231    5.7591   66.6985  F     
9    F        56.0953    6.1404   68.8523  F     
10   F        57.4317    4.4846   68.1937  F     
11   C        53.6017    1.7886   70.4456  C     
12   O        54.0749    2.2078   71.4997  O     
13   N        53.0585    0.5762   70.3753  N     
14   C        52.8959   -0.4003   71.3284  C     
15   C        55.8856   -0.5237   79.1932  C     
16   C        54.5312   -0.3174   78.8690  C     
17   C        54.0239   -0.9066   77.6852  C     
18   N        54.8715   -1.6475   76.9229  N     
19   C        56.1744   -1.8382   77.2589  C     
20   N        56.6696   -1.2798   78.3865  N     
21   C        52.6716   -0.7342   77.2668  C     
22   C        51.6691   -0.4292   78.2256  C     
23   C        50.3240   -0.2772   77.8422  C     
24   C        49.9764   -0.4464   76.4937  C     
25   N        50.9437   -0.7246   75.5865  N     
26   C        52.2619   -0.8647   75.9099  C     
27   N        53.1609   -1.1189   74.9293  N     
28   C        52.8977   -1.3168   73.6123  C     
29   C        53.0287   -0.2217   72.7274  C     
30   C        52.5759   -1.6906   70.8486  C     
31   C        52.4573   -2.7857   71.7269  C     
32   C        52.6257   -2.6185   73.1177  C     
33   C        52.5356   -3.7848   74.0369  C     
34   H        55.4904    3.6098   69.9601  H     
35   H        54.3721    4.5009   65.9958  H     
36   H        52.5420    2.9544   66.1634  H     
37   H        52.1383    1.7533   68.1938  H     
38   H        52.8004    0.2994   69.4787  H     
39   H        56.2853   -0.1090   80.0394  H     
40   H        53.9459    0.2684   79.4698  H     
41   H        56.7865   -2.3994   76.6694  H     
42   H        51.9134   -0.3219   79.2152  H     
43   H        49.6071   -0.0677   78.5428  H     
44   H        49.0071   -0.3546   76.1931  H     
45   H        54.0844   -1.2300   75.1999  H     
46   H        53.2301    0.7021   73.1104  H     
47   H        52.4695   -1.8545   69.8413  H     
48   H        52.2505   -3.7075   71.3368  H     
49   H        53.4792   -3.8972   74.5787  H     
50   H        52.3399   -4.7228   73.5110  H     
51   H        51.7292   -3.6324   74.7590  H     
@<TRIPOS>BOND
     1    1    2 2
     2    1    6 1
     3    1   11 1
     4    2    3 1
     5    3    4 2
     6    3    7 1
     7    4    5 1
     8    5    6 2
     9    7    8 1
    10    7    9 1
    11    7   10 1
    12   11   12 2
    13   11   13 am
    14   13   14 1
    15   14   29 1
    16   14   30 2
    17   15   16 2
    18   15   20 1
    19   16   17 1
    20   17   18 2
    21   17   21 1
    22   18   19 1
    23   19   20 2
    24   21   22 2
    25   21   26 1
    26   22   23 1
    27   23   24 2
    28   24   25 1
    29   25   26 2
    30   26   27 1
    31   27   28 1
    32   28   29 2
    33   28   32 1
    34   30   31 1
    35   31   32 2
    36   32   33 1
    37    2   34 1
    38    4   35 1
    39    5   36 1
    40    6   37 1
    41   13   38 1
    42   15   39 1
    43   16   40 1
    44   19   41 1
    45   22   42 1
    46   23   43 1
    47   24   44 1
    48   27   45 1
    49   29   46 1
    50   30   47 1
    51   31   48 1
    52   33   49 1
    53   33   50 1
    54   33   51 1
@<TRIPOS>PROPERTY_DATA
  Total_Score	| 8.2685
  Crash		| -1.0405
  Polar		| 1.7399
  FragIndex	| 1
  FragRMSD	| 1.149

