@<TRIPOS>MOLECULE
BindingDB_35322
 58 62 0 0 0
SMALL
NO_CHARGES


@<TRIPOS>ATOM
1    N        55.5622   -0.8646   76.3710  N     
2    C        55.1741   -1.3829   77.5661  C     
3    C        53.7941   -1.4463   77.8691  C     
4    C        52.8494   -0.9193   76.9471  C     
5    N        53.3439   -0.3484   75.8127  N     
6    C        54.6643   -0.3365   75.5057  C     
7    C        51.4387   -0.8943   77.1807  C     
8    C        50.9892   -0.7166   78.5175  C     
9    C        49.6278   -0.6551   78.8565  C     
10   C        48.6810   -0.7865   77.8352  C     
11   N        49.1193   -0.9490   76.5662  N     
12   C        50.4201   -1.0171   76.1762  C     
13   N        50.4521   -1.2161   74.8276  N     
14   C        51.4663   -1.2245   73.9154  C     
15   C        52.4975   -2.2054   73.9526  C     
16   C        51.4161   -0.2982   72.8307  C     
17   C        52.5409   -0.1586   71.9627  C     
18   C        53.6054   -1.0809   72.0736  C     
19   C        53.5492   -2.1232   73.0153  C     
20   C        52.4693   -3.3323   74.9250  C     
21   C        50.2870    0.5022   72.5701  C     
22   C        50.2670    1.3806   71.5559  C     
23   N        51.3486    1.5619   70.7959  N     
24   C        52.5131    0.8742   70.9657  C     
25   N        53.6477    1.2137   70.3046  N     
26   C        53.8465    2.2008   69.3805  C     
27   C        52.9920    2.3860   68.2718  C     
28   C        53.3156    3.3185   67.2711  C     
29   C        54.4892    4.0884   67.3748  C     
30   C        55.3423    3.9449   68.4915  C     
31   C        55.0045    3.0042   69.4900  C     
32   N        56.1915   -1.7568   78.3833  N     
33   C        56.4051   -1.2479   79.6892  C     
34   C        56.4277    4.6625   68.5839  C     
35   C        57.4284    5.3120   68.6702  C     
36   H        53.4911   -1.8882   78.7245  H     
37   H        54.9773    0.0690   74.6255  H     
38   H        51.6460   -0.6071   79.2948  H     
39   H        49.3273   -0.5068   79.8259  H     
40   H        47.6838   -0.7578   78.0399  H     
41   H        49.5682   -1.2361   74.4161  H     
42   H        54.4186   -1.0393   71.4557  H     
43   H        54.3074   -2.8094   73.0270  H     
44   H        52.5226   -2.9294   75.9410  H     
45   H        53.3030   -4.0240   74.7809  H     
46   H        51.5398   -3.9067   74.8048  H     
47   H        49.4492    0.3824   73.0862  H     
48   H        49.4508    1.9040   71.3531  H     
49   H        54.4475    0.7510   70.5962  H     
50   H        52.1596    1.8039   68.1574  H     
51   H        52.7034    3.4281   66.4598  H     
52   H        54.7084    4.7560   66.6250  H     
53   H        55.6086    2.8906   70.3085  H     
54   H        56.9109   -2.2693   77.9914  H     
55   H        56.5832   -0.1606   79.6469  H     
56   H        57.3059   -1.7052   80.1100  H     
57   H        55.5553   -1.4487   80.3476  H     
58   H        58.2004    5.8092   68.7240  H     
@<TRIPOS>BOND
     1    1    2 1
     2    1    6 2
     3    2    3 2
     4    2   32 1
     5    3    4 1
     6    4    5 2
     7    4    7 1
     8    5    6 1
     9    7    8 1
    10    7   12 2
    11    8    9 2
    12    9   10 1
    13   10   11 2
    14   11   12 1
    15   12   13 1
    16   13   14 1
    17   14   15 1
    18   14   16 2
    19   15   19 2
    20   15   20 1
    21   16   17 1
    22   16   21 1
    23   17   18 2
    24   17   24 1
    25   18   19 1
    26   21   22 2
    27   22   23 1
    28   23   24 2
    29   24   25 1
    30   25   26 1
    31   26   27 1
    32   26   31 2
    33   27   28 2
    34   28   29 1
    35   29   30 2
    36   30   31 1
    37   30   34 1
    38   32   33 1
    39   34   35 3
    40    3   36 1
    41    6   37 1
    42    8   38 1
    43    9   39 1
    44   10   40 1
    45   13   41 1
    46   18   42 1
    47   19   43 1
    48   20   44 1
    49   20   45 1
    50   20   46 1
    51   21   47 1
    52   22   48 1
    53   25   49 1
    54   27   50 1
    55   28   51 1
    56   29   52 1
    57   31   53 1
    58   32   54 1
    59   33   55 1
    60   33   56 1
    61   33   57 1
    62   35   58 1
@<TRIPOS>PROPERTY_DATA
  Total_Score	| 2.2862
  Crash		| -4.4162
  Polar		| 0.0000
  FragIndex	| 1
  FragRMSD	| 0.629

