@<TRIPOS>MOLECULE
BindingDB_35321
 57 61 0 0 0
SMALL
NO_CHARGES


@<TRIPOS>ATOM
1    N        56.6232   -1.7902   78.5129  N     
2    C        55.7360   -1.3656   79.4447  C     
3    C        54.3802   -1.1765   79.0712  C     
4    C        53.9593   -1.4485   77.7414  C     
5    N        54.9401   -1.8818   76.8956  N     
6    C        56.2428   -2.0516   77.2422  C     
7    C        52.6109   -1.2612   77.2326  C     
8    C        51.5176   -1.1217   78.1354  C     
9    C        50.1980   -0.8787   77.6996  C     
10   C        49.9454   -0.7841   76.3262  C     
11   N        50.9711   -0.9717   75.4648  N     
12   C        52.2641   -1.2143   75.8389  C     
13   N        53.1726   -1.4142   74.8445  N     
14   C        52.9408   -1.4421   73.4965  C     
15   C        52.8142   -2.6915   72.8383  C     
16   C        53.0091   -0.2434   72.7331  C     
17   C        52.8755   -0.2776   71.3137  C     
18   C        52.6794   -1.5237   70.6847  C     
19   C        52.6575   -2.7117   71.4350  C     
20   C        52.9002   -3.9667   73.5979  C     
21   C        53.2461    0.9842   73.3532  C     
22   C        53.3154    2.1211   72.6415  C     
23   N        53.1815    2.1011   71.3203  N     
24   C        52.9584    0.9683   70.5944  C     
25   N        52.7662    1.0517   69.2546  N     
26   C        52.7341    2.1867   68.4987  C     
27   C        51.5070    2.6128   67.9505  C     
28   C        51.4521    3.7125   67.0749  C     
29   C        52.6345    4.3927   66.7199  C     
30   C        53.8664    3.9833   67.2794  C     
31   C        53.9121    2.8912   68.1681  C     
32   C        52.5828    5.3686   65.8584  C     
33   N        56.2406   -1.1555   80.6878  N     
34   C        55.4969   -1.0683   81.9045  C     
35   N        52.5285    6.2260   65.0922  N     
36   H        53.7310   -0.8086   79.7606  H     
37   H        56.9230   -2.3764   76.5590  H     
38   H        51.6486   -1.2128   79.1444  H     
39   H        49.4320   -0.7819   78.3754  H     
40   H        49.0008   -0.6112   75.9775  H     
41   H        54.0912   -1.5564   75.0902  H     
42   H        52.5741   -1.5882   69.6719  H     
43   H        52.5438   -3.6013   70.9422  H     
44   H        53.8630   -4.0268   74.1106  H     
45   H        52.8117   -4.8449   72.9546  H     
46   H        52.1024   -4.0066   74.3409  H     
47   H        53.3657    1.0423   74.3323  H     
48   H        53.4569    2.9855   73.1041  H     
49   H        52.5234    0.2290   68.7961  H     
50   H        50.6380    2.1206   68.1796  H     
51   H        50.5438    3.9941   66.6874  H     
52   H        54.7366    4.4543   67.0224  H     
53   H        54.8157    2.5793   68.5303  H     
54   H        57.2048   -1.0691   80.7871  H     
55   H        54.8061   -0.2196   81.8826  H     
56   H        56.1932   -0.9267   82.7361  H     
57   H        54.9297   -1.9876   82.0739  H     
@<TRIPOS>BOND
     1    1    2 1
     2    1    6 2
     3    2    3 2
     4    2   33 1
     5    3    4 1
     6    4    5 2
     7    4    7 1
     8    5    6 1
     9    7    8 1
    10    7   12 2
    11    8    9 2
    12    9   10 1
    13   10   11 2
    14   11   12 1
    15   12   13 1
    16   13   14 1
    17   14   15 1
    18   14   16 2
    19   15   19 2
    20   15   20 1
    21   16   17 1
    22   16   21 1
    23   17   18 2
    24   17   24 1
    25   18   19 1
    26   21   22 2
    27   22   23 1
    28   23   24 2
    29   24   25 1
    30   25   26 1
    31   26   27 1
    32   26   31 2
    33   27   28 2
    34   28   29 1
    35   29   30 2
    36   29   32 1
    37   30   31 1
    38   32   35 3
    39   33   34 1
    40    3   36 1
    41    6   37 1
    42    8   38 1
    43    9   39 1
    44   10   40 1
    45   13   41 1
    46   18   42 1
    47   19   43 1
    48   20   44 1
    49   20   45 1
    50   20   46 1
    51   21   47 1
    52   22   48 1
    53   25   49 1
    54   27   50 1
    55   28   51 1
    56   30   52 1
    57   31   53 1
    58   33   54 1
    59   34   55 1
    60   34   56 1
    61   34   57 1
@<TRIPOS>PROPERTY_DATA
  Total_Score	| 5.8130
  Crash		| -3.6246
  Polar		| 2.4415
  FragIndex	| 1
  FragRMSD	| 1.466

