@<TRIPOS>MOLECULE
BindingDB_15020
 79 84 0 0 0
SMALL
NO_CHARGES


@<TRIPOS>ATOM
1    C        54.2789    3.3966   67.8192  C     
2    C        53.0931    2.7181   68.1933  C     
3    C        51.9179    2.9352   67.4371  C     
4    C        51.9141    3.8410   66.3636  C     
5    C        53.0885    4.5485   66.0235  C     
6    C        54.2727    4.3078   66.7494  C     
7    N        53.0324    1.7948   69.1931  N     
8    C        53.6008    1.8104   70.3970  C     
9    O        54.1471    2.8407   70.7786  O     
10   C        53.4854    0.7248   71.2808  C     
11   C        52.9125   -1.6322   71.7295  C     
12   C        53.3393   -1.4960   73.0646  C     
13   C        53.8134   -0.2511   73.5340  C     
14   C        53.9102    0.8310   72.6376  C     
15   C        52.9890   -0.5397   70.8530  C     
16   N        54.3822   -0.1314   74.7656  N     
17   C        54.0828   -0.7721   75.9193  C     
18   C        52.8372   -1.7470   77.7595  C     
19   C        54.0427   -2.0888   78.3975  C     
20   C        55.2506   -1.7354   77.7863  C     
21   N        55.2210   -1.0842   76.5990  N     
22   C        52.8185   -1.1014   76.4970  C     
23   C        51.5595   -0.6859   75.9910  C     
24   C        50.0125   -0.4539   74.2200  C     
25   C        49.4333    0.3164   76.3703  C     
26   N        50.6525   -0.0983   76.8165  N     
27   N        49.1298    0.1392   75.0599  N     
28   N        51.2176   -0.8640   74.6898  N     
29   N        48.5453    0.9928   77.1284  N     
30   C        48.6871    1.3787   78.4298  C     
31   C        48.7840    0.4720   79.5098  C     
32   C        48.9032    0.9332   80.8402  C     
33   C        48.9032    2.3219   81.0988  C     
34   C        48.7644    3.2371   80.0313  C     
35   C        48.6696    2.7594   78.7063  C     
36   O        48.8954    0.0504   81.8910  O     
37   O        48.9287    2.7748   82.3923  O     
38   O        48.7757    4.5872   80.2624  O     
39   C        47.4626    5.1609   80.3989  C     
40   C        50.1066    3.5278   82.7274  C     
41   C        50.1496   -0.6046   82.1482  C     
42   O        53.1241    5.4465   64.9890  O     
43   C        52.0406    6.2845   64.9807  C     
44   C        49.9568    6.9951   63.9144  C     
45   C        51.1011    6.1763   63.9336  C     
46   C        51.8444    7.2550   65.9901  C     
47   C        50.6994    8.0714   65.9753  C     
48   C        49.7537    7.9365   64.9406  C     
49   H        55.1615    3.2027   68.3047  H     
50   H        51.0535    2.4360   67.6679  H     
51   H        51.0512    3.9921   65.8370  H     
52   H        55.1346    4.7987   66.4937  H     
53   H        52.4275    1.0620   69.0212  H     
54   H        52.5730   -2.5381   71.3924  H     
55   H        53.3191   -2.3116   73.6772  H     
56   H        54.3083    1.7104   72.9880  H     
57   H        52.7066   -0.6928   69.8810  H     
58   H        55.2566    0.2912   74.7534  H     
59   H        51.9643   -1.9755   78.2389  H     
60   H        54.0363   -2.5664   79.2989  H     
61   H        56.1468   -1.9600   78.2258  H     
62   H        49.7792   -0.5866   73.2386  H     
63   H        47.7810    1.3582   76.6530  H     
64   H        48.7346   -0.5337   79.3367  H     
65   H        48.5941    3.4356   77.9397  H     
66   H        46.8650    5.0159   79.4952  H     
67   H        47.5767    6.2325   80.5623  H     
68   H        46.9350    4.7400   81.2575  H     
69   H        51.0072    2.9166   82.6429  H     
70   H        50.0162    3.8544   83.7641  H     
71   H        50.2108    4.4175   82.1002  H     
72   H        50.4271   -1.2675   81.3258  H     
73   H        50.0338   -1.2097   83.0479  H     
74   H        50.9548    0.1130   82.3222  H     
75   H        49.2702    6.8991   63.1622  H     
76   H        51.2401    5.4835   63.1938  H     
77   H        52.5208    7.3494   66.7516  H     
78   H        50.5509    8.7487   66.7282  H     
79   H        48.9165    8.5203   64.9344  H     
@<TRIPOS>BOND
     1    1    2 1
     2    1    6 2
     3    2    3 2
     4    2    7 1
     5    3    4 1
     6    4    5 2
     7    5    6 1
     8    5   42 1
     9    7    8 am
    10    8    9 2
    11    8   10 1
    12   10   14 1
    13   10   15 2
    14   11   12 2
    15   11   15 1
    16   12   13 1
    17   13   14 2
    18   13   16 1
    19   16   17 1
    20   17   21 2
    21   17   22 1
    22   18   19 1
    23   18   22 2
    24   19   20 2
    25   20   21 1
    26   22   23 1
    27   23   26 1
    28   23   28 2
    29   24   27 2
    30   24   28 1
    31   25   26 2
    32   25   27 1
    33   25   29 1
    34   29   30 1
    35   30   31 1
    36   30   35 2
    37   31   32 2
    38   32   33 1
    39   32   36 1
    40   33   34 2
    41   33   37 1
    42   34   35 1
    43   34   38 1
    44   36   41 1
    45   37   40 1
    46   38   39 1
    47   42   43 1
    48   43   45 1
    49   43   46 2
    50   44   45 2
    51   44   48 1
    52   46   47 1
    53   47   48 2
    54    1   49 1
    55    3   50 1
    56    4   51 1
    57    6   52 1
    58    7   53 1
    59   11   54 1
    60   12   55 1
    61   14   56 1
    62   15   57 1
    63   16   58 1
    64   18   59 1
    65   19   60 1
    66   20   61 1
    67   24   62 1
    68   29   63 1
    69   31   64 1
    70   35   65 1
    71   39   66 1
    72   39   67 1
    73   39   68 1
    74   40   69 1
    75   40   70 1
    76   40   71 1
    77   41   72 1
    78   41   73 1
    79   41   74 1
    80   44   75 1
    81   45   76 1
    82   46   77 1
    83   47   78 1
    84   48   79 1
@<TRIPOS>PROPERTY_DATA
  Total_Score	| 3.8315
  Crash		| -2.5366
  Polar		| 1.9428
  FragIndex	| 1
  FragRMSD	| 1.167

