@<TRIPOS>MOLECULE
BindingDB_13530
 70 74 0 0 0
SMALL
NO_CHARGES


@<TRIPOS>ATOM
1    C        53.9771    1.5470   70.5231  C     
2    O        54.8496    1.6522   71.3815  O     
3    C        53.8979    2.4845   69.4811  C     
4    C        54.6614    3.6796   69.4999  C     
5    C        53.0471    2.2690   68.3682  C     
6    C        54.4793    4.6771   68.5223  C     
7    C        52.9040    3.2435   67.3682  C     
8    C        53.5629    4.4907   67.4590  C     
9    N        53.0214    0.6375   70.6883  N     
10   C        53.3072    5.5612   66.4547  C     
11   N        51.9344    6.1898   66.4915  N     
12   N        50.3998    5.6296   63.9921  N     
13   C        51.4988    6.6449   64.0248  C     
14   C        50.7670    5.2513   66.4825  C     
15   C        50.5243    4.6123   65.0864  C     
16   C        51.7355    7.2445   65.4395  C     
17   C        49.0376    6.2249   63.8837  C     
18   C        51.7325   -1.1390   73.6497  C     
19   C        52.5476   -2.3062   73.6551  C     
20   C        53.5904   -2.4056   72.7033  C     
21   C        53.7966   -1.4027   71.7383  C     
22   C        52.9301   -0.2938   71.6797  C     
23   C        51.8930   -0.1794   72.6240  C     
24   C        52.2715   -3.4575   74.5613  C     
25   N        50.7233   -0.9140   74.5359  N     
26   N        49.7206   -0.5218   76.5855  N     
27   N        52.0142   -0.9538   76.5551  N     
28   C        50.8428   -0.8065   75.8799  C     
29   C        50.9409   -0.5563   78.6377  C     
30   C        49.7329   -0.3951   77.9337  C     
31   C        52.1151   -0.8439   77.9091  C     
32   N        55.3216   -2.3840   78.9702  N     
33   C        55.9111   -1.4073   79.7091  C     
34   C        54.1117   -2.2249   78.3789  C     
35   C        53.3838   -1.0116   78.5270  C     
36   C        55.2574   -0.1689   79.8713  C     
37   C        53.9925    0.0159   79.2892  C     
38   H        55.3245    3.8642   70.2593  H     
39   H        52.5283    1.3939   68.2727  H     
40   H        54.9906    5.5564   68.6142  H     
41   H        52.2747    3.0493   66.5832  H     
42   H        52.2493    0.6954   70.1009  H     
43   H        54.0399    6.3502   66.6241  H     
44   H        53.5226    5.1576   65.4644  H     
45   H        51.8709    6.6960   67.3788  H     
46   H        50.5275    5.1099   63.1190  H     
47   H        52.4179    6.1654   63.6843  H     
48   H        51.3009    7.4589   63.3205  H     
49   H        50.8758    4.4685   67.2330  H     
50   H        49.8764    5.8109   66.7802  H     
51   H        49.6346    3.9787   65.1318  H     
52   H        51.3642    3.9584   64.8445  H     
53   H        50.8645    7.8470   65.7171  H     
54   H        52.5856    7.9323   65.4098  H     
55   H        48.7782    6.8170   64.7631  H     
56   H        48.2901    5.4383   63.7612  H     
57   H        48.9768    6.8696   63.0032  H     
58   H        54.2041   -3.2220   72.6993  H     
59   H        54.5480   -1.5078   71.0530  H     
60   H        51.2583    0.6242   72.5704  H     
61   H        52.5776   -3.2242   75.5767  H     
62   H        52.8069   -4.3576   74.2564  H     
63   H        51.2069   -3.6951   74.5663  H     
64   H        49.8626   -0.6654   74.1606  H     
65   H        50.9446   -0.4824   79.6583  H     
66   H        48.8641   -0.1868   78.4277  H     
67   H        56.8244   -1.5709   80.1281  H     
68   H        53.7247   -3.0076   77.8503  H     
69   H        55.6980    0.5779   80.4098  H     
70   H        53.5240    0.9215   79.4048  H     
@<TRIPOS>BOND
     1    1    2 2
     2    1    3 1
     3    1    9 am
     4    3    4 2
     5    3    5 1
     6    4    6 1
     7    5    7 2
     8    6    8 2
     9    7    8 1
    10    8   10 1
    11    9   22 1
    12   10   11 1
    13   11   14 1
    14   11   16 1
    15   12   13 1
    16   12   15 1
    17   12   17 1
    18   13   16 1
    19   14   15 1
    20   18   19 1
    21   18   23 2
    22   18   25 1
    23   19   20 2
    24   19   24 1
    25   20   21 1
    26   21   22 2
    27   22   23 1
    28   25   28 1
    29   26   28 2
    30   26   30 1
    31   27   28 1
    32   27   31 2
    33   29   30 2
    34   29   31 1
    35   31   35 1
    36   32   33 2
    37   32   34 1
    38   33   36 1
    39   34   35 2
    40   35   37 1
    41   36   37 2
    42    4   38 1
    43    5   39 1
    44    6   40 1
    45    7   41 1
    46    9   42 1
    47   10   43 1
    48   10   44 1
    49   11   45 1
    50   12   46 1
    51   13   47 1
    52   13   48 1
    53   14   49 1
    54   14   50 1
    55   15   51 1
    56   15   52 1
    57   16   53 1
    58   16   54 1
    59   17   55 1
    60   17   56 1
    61   17   57 1
    62   20   58 1
    63   21   59 1
    64   23   60 1
    65   24   61 1
    66   24   62 1
    67   24   63 1
    68   25   64 1
    69   29   65 1
    70   30   66 1
    71   33   67 1
    72   34   68 1
    73   36   69 1
    74   37   70 1
@<TRIPOS>PROPERTY_DATA
  Total_Score	| 7.8402
  Crash		| -2.3117
  Polar		| 2.6886
  FragIndex	| 1
  FragRMSD	| 0.724

