@<TRIPOS>MOLECULE
BindingDB_14973
 51 54 0 0 0
SMALL
NO_CHARGES


@<TRIPOS>ATOM
1    C        55.0019    3.0410   69.9364  C     
2    C        53.8085    2.3467   69.6127  C     
3    C        53.2166    2.6179   68.3611  C     
4    C        53.7499    3.6074   67.5054  C     
5    C        54.9327    4.3097   67.8374  C     
6    C        55.5581    3.9976   69.0651  C     
7    N        53.2413    1.3601   70.3983  N     
8    C        53.3293    1.2091   71.7190  C     
9    O        53.7649    2.1667   72.3646  O     
10   C        52.9804    0.0442   72.4141  C     
11   C        52.0323   -2.2281   72.5270  C     
12   C        52.3325   -2.3253   73.9033  C     
13   C        52.9230   -1.2089   74.5558  C     
14   C        53.2652   -0.0765   73.7936  C     
15   C        52.3407   -1.0631   71.7907  C     
16   C        52.0887   -3.6251   74.5884  C     
17   N        53.2884   -1.2011   75.8629  N     
18   C        52.4364   -1.1646   76.9217  C     
19   C        51.9461   -1.1431   79.2936  C     
20   C        50.5846   -0.9533   79.0183  C     
21   C        50.1720   -0.8920   77.6774  C     
22   N        51.0985   -1.0001   76.6901  N     
23   C        52.9143   -1.2476   78.2566  C     
24   C        54.2899   -1.4173   78.6261  C     
25   C        55.9584   -1.1550   80.3406  C     
26   C        56.5776   -2.1437   78.2913  C     
27   C        55.2736   -2.0162   77.7974  C     
28   N        56.9007   -1.7263   79.5458  N     
29   N        54.6904   -1.0190   79.8720  N     
30   C        55.4648    5.3885   66.9572  C     
31   F        56.7725    5.7545   67.2018  F     
32   F        55.4203    5.0249   65.6355  F     
33   F        54.6901    6.5061   67.1291  F     
34   H        55.5005    2.8501   70.8030  H     
35   H        52.3764    2.1065   68.0765  H     
36   H        53.2590    3.8082   66.6302  H     
37   H        56.4208    4.4745   69.3459  H     
38   H        52.6630    0.7381   69.9276  H     
39   H        51.6014   -3.0252   72.0343  H     
40   H        53.7418    0.6809   74.2821  H     
41   H        52.0949   -1.0433   70.7982  H     
42   H        51.0133   -3.8149   74.6234  H     
43   H        52.4756   -3.6463   75.5993  H     
44   H        52.5796   -4.4353   74.0422  H     
45   H        54.2349   -1.1131   76.0580  H     
46   H        52.2125   -1.2139   80.2787  H     
47   H        49.9019   -0.8525   79.7732  H     
48   H        49.1812   -0.7637   77.4366  H     
49   H        56.2013   -0.8318   81.2756  H     
50   H        57.2950   -2.5651   77.7070  H     
51   H        55.0518   -2.3690   76.8528  H     
@<TRIPOS>BOND
     1    1    2 1
     2    1    6 2
     3    2    3 2
     4    2    7 1
     5    3    4 1
     6    4    5 2
     7    5    6 1
     8    5   30 1
     9    7    8 am
    10    8    9 2
    11    8   10 1
    12   10   14 1
    13   10   15 2
    14   11   12 2
    15   11   15 1
    16   12   13 1
    17   12   16 1
    18   13   14 2
    19   13   17 1
    20   17   18 1
    21   18   22 2
    22   18   23 1
    23   19   20 1
    24   19   23 2
    25   20   21 2
    26   21   22 1
    27   23   24 1
    28   24   27 1
    29   24   29 2
    30   25   28 2
    31   25   29 1
    32   26   27 2
    33   26   28 1
    34   30   31 1
    35   30   32 1
    36   30   33 1
    37    1   34 1
    38    3   35 1
    39    4   36 1
    40    6   37 1
    41    7   38 1
    42   11   39 1
    43   14   40 1
    44   15   41 1
    45   16   42 1
    46   16   43 1
    47   16   44 1
    48   17   45 1
    49   19   46 1
    50   20   47 1
    51   21   48 1
    52   25   49 1
    53   26   50 1
    54   27   51 1
@<TRIPOS>PROPERTY_DATA
  Total_Score	| 6.4620
  Crash		| -2.8615
  Polar		| 2.9279
  FragIndex	| 1
  FragRMSD	| 1.497

