@<TRIPOS>MOLECULE
BindingDB_14976
 66 70 0 0 0
SMALL
NO_CHARGES


@<TRIPOS>ATOM
1    C        54.0105    2.1341   69.8779  C     
2    C        53.2059    2.7414   68.8590  C     
3    C        53.7539    3.7901   68.0711  C     
4    C        55.0586    4.2984   68.2854  C     
5    C        55.7892    3.7708   69.3617  C     
6    C        55.2647    2.7409   70.1446  C     
7    N        51.8867    2.3656   68.7343  N     
8    C        50.8255    2.9605   68.1768  C     
9    O        50.8897    4.0875   67.6700  O     
10   C        49.5851    2.3409   68.2370  C     
11   C        47.6700    1.3559   67.0987  C     
12   C        47.0547    1.0534   68.3351  C     
13   C        47.6600    1.5128   69.5358  C     
14   C        48.9413    2.1013   69.4759  C     
15   C        48.9074    2.0126   67.0513  C     
16   C        45.8145    0.2379   68.3063  C     
17   N        47.0447    1.4515   70.7520  N     
18   C        45.7799    1.8631   71.0326  C     
19   C        43.8343    2.1644   72.4608  C     
20   C        43.1780    2.8596   71.4316  C     
21   C        43.8381    3.0464   70.2100  C     
22   N        45.0908    2.5416   70.0640  N     
23   C        45.1540    1.6617   72.2972  C     
24   C        45.7875    0.9793   73.3845  C     
25   C        47.4253   -0.5870   74.1224  C     
26   C        46.1589    0.5710   75.7473  C     
27   C        45.4591    1.2530   74.7360  C     
28   N        47.1227   -0.3275   75.4188  N     
29   N        46.7670    0.0610   73.1325  N     
30   C        55.5917    5.4009   67.4341  C     
31   F        56.9356    5.6743   67.5884  F     
32   F        55.4185    5.1074   66.1001  F     
33   F        54.9082    6.5595   67.7305  F     
34   C        52.3943   -1.2099   72.0158  C     
35   C        52.1121   -0.9466   70.5171  C     
36   C        53.3136   -0.2368   69.8409  C     
37   C        54.0102    0.7683   71.9680  C     
38   C        52.8349    0.0968   72.7207  C     
39   N        53.6917    0.9708   70.5585  N     
40   H        53.1901    4.1965   67.3244  H     
41   H        56.7123    4.1433   69.5857  H     
42   H        55.8688    2.3770   70.8844  H     
43   H        51.6772    1.5141   69.1386  H     
44   H        47.2376    1.0634   66.2184  H     
45   H        49.3832    2.4180   70.3447  H     
46   H        49.3342    2.1956   66.1460  H     
47   H        44.9867    0.8115   67.8742  H     
48   H        45.5133   -0.1091   69.2964  H     
49   H        45.9721   -0.6529   67.6900  H     
50   H        47.5893    1.1243   71.4951  H     
51   H        43.3314    2.0167   73.3363  H     
52   H        42.2266    3.2227   71.5657  H     
53   H        43.3972    3.5387   69.4340  H     
54   H        48.1575   -1.2518   73.8821  H     
55   H        45.9541    0.7497   76.7326  H     
56   H        44.7523    1.9463   74.9953  H     
57   H        51.4926   -1.6035   72.4963  H     
58   H        53.1863   -1.9601   72.1137  H     
59   H        51.9102   -1.8939   70.0138  H     
60   H        51.2302   -0.3120   70.4321  H     
61   H        54.1663   -0.9244   69.8490  H     
62   H        53.0882   -0.0627   68.7862  H     
63   H        54.2087    1.7063   72.4900  H     
64   H        54.9000    0.1402   72.0661  H     
65   H        51.9904    0.7928   72.7468  H     
66   H        53.1223   -0.1223   73.7540  H     
@<TRIPOS>BOND
     1    1    2 1
     2    1    6 2
     3    1   39 1
     4    2    3 2
     5    2    7 1
     6    3    4 1
     7    4    5 2
     8    4   30 1
     9    5    6 1
    10    7    8 am
    11    8    9 2
    12    8   10 1
    13   10   14 1
    14   10   15 2
    15   11   12 2
    16   11   15 1
    17   12   13 1
    18   12   16 1
    19   13   14 2
    20   13   17 1
    21   17   18 1
    22   18   22 2
    23   18   23 1
    24   19   20 1
    25   19   23 2
    26   20   21 2
    27   21   22 1
    28   23   24 1
    29   24   27 1
    30   24   29 2
    31   25   28 2
    32   25   29 1
    33   26   27 2
    34   26   28 1
    35   30   31 1
    36   30   32 1
    37   30   33 1
    38   34   35 1
    39   34   38 1
    40   35   36 1
    41   36   39 1
    42   37   38 1
    43   37   39 1
    44    3   40 1
    45    5   41 1
    46    6   42 1
    47    7   43 1
    48   11   44 1
    49   14   45 1
    50   15   46 1
    51   16   47 1
    52   16   48 1
    53   16   49 1
    54   17   50 1
    55   19   51 1
    56   20   52 1
    57   21   53 1
    58   25   54 1
    59   26   55 1
    60   27   56 1
    61   34   57 1
    62   34   58 1
    63   35   59 1
    64   35   60 1
    65   36   61 1
    66   36   62 1
    67   37   63 1
    68   37   64 1
    69   38   65 1
    70   38   66 1
@<TRIPOS>PROPERTY_DATA
  Total_Score	| 3.7003
  Crash		| -5.2080
  Polar		| 1.9826
  FragIndex	| 1
  FragRMSD	| 1.347

