@<TRIPOS>MOLECULE
BindingDB_14975
 55 58 0 0 0
SMALL
NO_CHARGES


@<TRIPOS>ATOM
1    C        52.6872    2.6730   67.6884  C     
2    C        53.4874    2.5490   68.8555  C     
3    C        54.6917    3.2985   68.9132  C     
4    C        55.1225    4.1315   67.8519  C     
5    C        54.3099    4.1964   66.6937  C     
6    C        53.1280    3.4514   66.6036  C     
7    N        53.0941    1.6455   69.8155  N     
8    C        53.4223    1.5471   71.1108  C     
9    O        54.0037    2.4919   71.6402  O     
10   C        53.0927    0.4470   71.9210  C     
11   C        52.0985   -1.7889   72.2117  C     
12   C        52.2842   -1.7438   73.6102  C     
13   C        52.9206   -0.6090   74.1775  C     
14   C        53.3282    0.4461   73.3215  C     
15   C        52.4633   -0.7081   71.3895  C     
16   C        51.8290   -2.9200   74.3926  C     
17   N        53.2769   -0.4976   75.4803  N     
18   C        52.4916   -0.2357   76.5555  C     
19   C        50.5879    0.1814   78.0081  C     
20   C        51.4501    0.2745   79.1114  C     
21   C        52.8324    0.1107   78.9152  C     
22   N        53.2859   -0.1106   77.6555  N     
23   C        51.0664   -0.0832   76.6810  C     
24   C        50.1207   -0.1933   75.5999  C     
25   C        49.5232    0.3008   73.3387  C     
26   C        47.9675   -0.9084   74.6529  C     
27   C        48.8466   -0.8365   75.7505  C     
28   N        48.3158   -0.3305   73.4727  N     
29   N        50.4206    0.3313   74.3738  N     
30   C        56.4170    4.8747   67.9435  C     
31   F        56.6912    5.6959   66.8711  F     
32   F        56.4417    5.6668   69.0608  F     
33   F        57.4590    3.9883   68.0444  F     
34   O        51.5186    2.0002   67.5059  O     
35   C        50.3708    2.6347   68.1001  C     
36   H        55.3149    3.2028   69.7155  H     
37   H        54.5922    4.7686   65.8918  H     
38   H        52.5554    3.5259   65.7473  H     
39   H        52.4636    0.9842   69.4859  H     
40   H        51.6375   -2.5925   71.7728  H     
41   H        53.7788    1.2500   73.7642  H     
42   H        52.2344   -0.7633   70.3942  H     
43   H        50.7487   -3.0432   74.2487  H     
44   H        52.0137   -2.8232   75.4578  H     
45   H        52.3286   -3.8406   74.0553  H     
46   H        54.2336   -0.4240   75.6621  H     
47   H        49.5946    0.3467   78.1827  H     
48   H        51.0659    0.4759   80.0402  H     
49   H        53.4771    0.1645   79.6989  H     
50   H        49.7449    0.7294   72.4487  H     
51   H        47.0688   -1.3916   74.7576  H     
52   H        48.5644   -1.2722   76.6476  H     
53   H        50.4147    2.5535   69.1885  H     
54   H        49.4734    2.1084   67.7549  H     
55   H        50.2929    3.6925   67.8158  H     
@<TRIPOS>BOND
     1    1    2 1
     2    1    6 2
     3    1   34 1
     4    2    3 2
     5    2    7 1
     6    3    4 1
     7    4    5 2
     8    4   30 1
     9    5    6 1
    10    7    8 am
    11    8    9 2
    12    8   10 1
    13   10   14 1
    14   10   15 2
    15   11   12 2
    16   11   15 1
    17   12   13 1
    18   12   16 1
    19   13   14 2
    20   13   17 1
    21   17   18 1
    22   18   22 2
    23   18   23 1
    24   19   20 1
    25   19   23 2
    26   20   21 2
    27   21   22 1
    28   23   24 1
    29   24   27 1
    30   24   29 2
    31   25   28 2
    32   25   29 1
    33   26   27 2
    34   26   28 1
    35   30   31 1
    36   30   32 1
    37   30   33 1
    38   34   35 1
    39    3   36 1
    40    5   37 1
    41    6   38 1
    42    7   39 1
    43   11   40 1
    44   14   41 1
    45   15   42 1
    46   16   43 1
    47   16   44 1
    48   16   45 1
    49   17   46 1
    50   19   47 1
    51   20   48 1
    52   21   49 1
    53   25   50 1
    54   26   51 1
    55   27   52 1
    56   35   53 1
    57   35   54 1
    58   35   55 1
@<TRIPOS>PROPERTY_DATA
  Total_Score	| 7.3123
  Crash		| -2.0359
  Polar		| 2.3153
  FragIndex	| 1
  FragRMSD	| 0.474

