@<TRIPOS>MOLECULE
BindingDB_35559
 44 47 0 0 0
SMALL
NO_CHARGES


@<TRIPOS>ATOM
1    C        19.3453   44.5508   79.5798  C     
2    C        18.4108   45.2398   80.3617  C     
3    C        18.7061   45.6402   81.6865  C     
4    C        19.9603   45.2517   82.2437  C     
5    C        20.9204   44.5640   81.4374  C     
6    C        20.6205   44.2244   80.0919  C     
7    C        20.2685   45.4640   83.6099  C     
8    C        21.5080   45.0883   84.1468  C     
9    C        22.4638   44.4715   83.3296  C     
10   C        22.1889   44.1979   81.9689  C     
11   C        21.5968   43.5630   79.3274  C     
12   C        23.1196   43.5712   81.1246  C     
13   N        22.8121   43.2712   79.8441  N     
14   O        21.3110   43.2367   78.1765  O     
15   O        24.2359   43.3210   81.5740  O     
16   C        23.7490   42.6319   79.0512  C     
17   C        25.4036   42.6956   77.2427  C     
18   C        24.4946   43.3610   78.0822  C     
19   C        23.9492   41.2419   79.1711  C     
20   C        24.8415   40.5732   78.3175  C     
21   C        25.5720   41.3004   77.3543  C     
22   Br       25.0006   38.7312   78.4197  Br    
23   N        17.8170   46.4768   82.3150  N     
24   C        16.4499   46.0603   82.5797  C     
25   C        15.9757   46.3718   84.0226  C     
26   C        18.1503   47.8854   82.3938  C     
27   O        16.9993   46.1175   84.9794  O     
28   H        19.0887   44.3098   78.6194  H     
29   H        17.5237   45.5045   79.9251  H     
30   H        19.5792   45.8614   84.2482  H     
31   H        21.7113   45.2567   85.1351  H     
32   H        23.3585   44.2039   83.7438  H     
33   H        25.9329   43.2283   76.5421  H     
34   H        24.3730   44.3721   77.9832  H     
35   H        23.4317   40.7054   79.8752  H     
36   H        26.2285   40.8202   76.7387  H     
37   H        15.7774   46.5484   81.8694  H     
38   H        16.3364   44.9823   82.4399  H     
39   H        15.6703   47.4157   84.1084  H     
40   H        15.1145   45.7459   84.2688  H     
41   H        18.8553   48.0813   83.1978  H     
42   H        17.2735   48.5084   82.5740  H     
43   H        18.5890   48.2331   81.4563  H     
44   H        17.6009   46.8871   84.9173  H     
@<TRIPOS>BOND
     1    1    2 1
     2    1    6 2
     3    2    3 2
     4    3    4 1
     5    3   23 1
     6    4    5 2
     7    4    7 1
     8    5    6 1
     9    5   10 1
    10    6   11 1
    11    7    8 2
    12    8    9 1
    13    9   10 2
    14   10   12 1
    15   11   13 1
    16   11   14 2
    17   12   13 1
    18   12   15 2
    19   13   16 1
    20   16   18 1
    21   16   19 2
    22   17   18 2
    23   17   21 1
    24   19   20 1
    25   20   21 2
    26   20   22 1
    27   23   24 1
    28   23   26 1
    29   24   25 1
    30   25   27 1
    31    1   28 1
    32    2   29 1
    33    7   30 1
    34    8   31 1
    35    9   32 1
    36   17   33 1
    37   18   34 1
    38   19   35 1
    39   21   36 1
    40   24   37 1
    41   24   38 1
    42   25   39 1
    43   25   40 1
    44   26   41 1
    45   26   42 1
    46   26   43 1
    47   27   44 1
@<TRIPOS>PROPERTY_DATA
  Total_Score	| 3.1732
  Crash		| -1.7579
  Polar		| 1.0883
  FragIndex	| 1
  FragRMSD	| 0.822

