@<TRIPOS>MOLECULE
BindingDB_35569
 50 54 0 0 0
SMALL
NO_CHARGES


@<TRIPOS>ATOM
1    C        19.4605   44.7975   79.0842  C     
2    C        18.4463   45.4716   79.7703  C     
3    C        18.4673   45.6287   81.1738  C     
4    C        19.6262   45.1781   81.8829  C     
5    C        20.6753   44.4983   81.1746  C     
6    C        20.5777   44.2831   79.7736  C     
7    C        19.8475   45.4597   83.2534  C     
8    C        21.0052   45.0288   83.9166  C     
9    C        21.9957   44.3229   83.2234  C     
10   C        21.8577   44.0607   81.8402  C     
11   C        21.6136   43.6082   79.1091  C     
12   C        22.8654   43.4223   81.0936  C     
13   N        22.7275   43.2146   79.7656  N     
14   C        23.7373   42.5854   79.0544  C     
15   C        25.4886   42.6479   77.3384  C     
16   C        24.5365   43.3093   78.1362  C     
17   C        23.9273   41.1923   79.1677  C     
18   C        24.8652   40.5258   78.3593  C     
19   C        25.6477   41.2547   77.4432  C     
20   N        17.3191   46.2125   81.6249  N     
21   C        16.6444   46.2074   82.8860  C     
22   O        21.4720   43.3640   77.9118  O     
23   O        23.8937   43.0801   81.6726  O     
24   Br       25.0148   38.6762   78.4639  Br    
25   C        14.3169   45.9036   83.9372  C     
26   N        14.4378   47.2535   84.5385  N     
27   C        15.8294   47.6916   84.8013  C     
28   C        16.6842   47.6313   83.5128  C     
29   C        15.1655   45.7716   82.6478  C     
30   H        19.3703   44.6932   78.0695  H     
31   H        17.6561   45.8163   79.2166  H     
32   H        19.2052   46.0345   83.7894  H     
33   H        21.1425   45.2582   84.9027  H     
34   H        22.8341   44.0364   83.7360  H     
35   H        26.0506   43.1781   76.6712  H     
36   H        24.4136   44.3169   78.0320  H     
37   H        23.3634   40.6537   79.8197  H     
38   H        26.3269   40.7716   76.8519  H     
39   H        16.7741   46.5994   80.9197  H     
40   H        17.0819   45.4816   83.5732  H     
41   H        14.6296   45.1490   84.6614  H     
42   H        13.2656   45.7231   83.6997  H     
43   H        14.0047   47.9269   83.9023  H     
44   H        13.9210   47.2667   85.4197  H     
45   H        15.8053   48.7180   85.1754  H     
46   H        16.2802   47.0625   85.5738  H     
47   H        17.7138   47.9105   83.7498  H     
48   H        16.2964   48.3623   82.7962  H     
49   H        14.7111   46.3945   81.8695  H     
50   H        15.1378   44.7316   82.3044  H     
@<TRIPOS>BOND
     1    1    2 1
     2    1    6 2
     3    2    3 2
     4    3    4 1
     5    3   20 1
     6    4    5 2
     7    4    7 1
     8    5    6 1
     9    5   10 1
    10    6   11 1
    11    7    8 2
    12    8    9 1
    13    9   10 2
    14   10   12 1
    15   11   13 1
    16   11   22 2
    17   12   13 1
    18   12   23 2
    19   13   14 1
    20   14   16 1
    21   14   17 2
    22   15   16 2
    23   15   19 1
    24   17   18 1
    25   18   19 2
    26   18   24 1
    27   20   21 1
    28   21   28 1
    29   21   29 1
    30   25   26 1
    31   25   29 1
    32   26   27 1
    33   27   28 1
    34    1   30 1
    35    2   31 1
    36    7   32 1
    37    8   33 1
    38    9   34 1
    39   15   35 1
    40   16   36 1
    41   17   37 1
    42   19   38 1
    43   20   39 1
    44   21   40 1
    45   25   41 1
    46   25   42 1
    47   26   43 1
    48   26   44 1
    49   27   45 1
    50   27   46 1
    51   28   47 1
    52   28   48 1
    53   29   49 1
    54   29   50 1
@<TRIPOS>PROPERTY_DATA
  Total_Score	| 3.4942
  Crash		| -2.4457
  Polar		| 0.0000
  FragIndex	| 1
  FragRMSD	| 0.487

