@<TRIPOS>MOLECULE
BindingDB_35561
 42 45 0 0 0
SMALL
NO_CHARGES


@<TRIPOS>ATOM
1    C        22.0434   44.5323   83.2037  C     
2    C        21.0271   45.2063   83.8959  C     
3    C        19.8347   45.6171   83.2574  C     
4    C        19.6365   45.2158   81.9048  C     
5    C        20.7053   44.5961   81.1786  C     
6    C        21.9218   44.2460   81.8245  C     
7    C        18.3924   45.3531   81.2486  C     
8    C        18.2496   45.0913   79.8781  C     
9    C        19.3327   44.5928   79.1468  C     
10   C        20.5494   44.3075   79.7983  C     
11   C        22.9517   43.6126   81.1041  C     
12   C        21.6524   43.6895   79.0280  C     
13   N        22.8365   43.3524   79.7901  N     
14   O        23.9803   43.2920   81.6950  O     
15   C        23.8220   42.6971   79.0883  C     
16   C        25.5322   42.6737   77.3395  C     
17   C        24.6163   43.3805   78.1419  C     
18   C        23.9657   41.2999   79.2263  C     
19   C        24.8666   40.5893   78.4133  C     
20   C        25.6489   41.2778   77.4653  C     
21   Br       24.9162   38.7338   78.5050  Br    
22   N        19.0568   46.4306   84.0319  N     
23   C        17.6399   46.5342   84.2319  C     
24   C        16.9532   47.6281   83.3854  C     
25   O        15.5657   47.3339   83.2378  O     
26   H        22.8934   44.2857   83.7188  H     
27   H        21.1968   45.4394   84.8795  H     
28   H        17.5448   45.5622   81.7680  H     
29   H        17.3418   45.2161   79.4261  H     
30   H        19.2112   44.3863   78.1518  H     
31   H        21.2584   42.7779   78.5661  H     
32   H        21.9294   44.3832   78.2277  H     
33   H        26.0928   43.1736   76.6466  H     
34   H        24.5103   44.3912   78.0161  H     
35   H        23.3821   40.7906   79.8897  H     
36   H        26.2889   40.7613   76.8584  H     
37   H        19.5434   47.1600   84.4422  H     
38   H        17.1352   45.5880   84.0862  H     
39   H        17.4915   46.7940   85.2840  H     
40   H        17.0493   48.5951   83.8780  H     
41   H        17.4069   47.6975   82.3956  H     
42   H        15.5331   46.5680   82.6239  H     
@<TRIPOS>BOND
     1    1    2 1
     2    1    6 2
     3    2    3 2
     4    3    4 1
     5    3   22 1
     6    4    5 2
     7    4    7 1
     8    5    6 1
     9    5   10 1
    10    6   11 1
    11    7    8 2
    12    8    9 1
    13    9   10 2
    14   10   12 1
    15   11   13 1
    16   11   14 2
    17   12   13 1
    18   13   15 1
    19   15   17 1
    20   15   18 2
    21   16   17 2
    22   16   20 1
    23   18   19 1
    24   19   20 2
    25   19   21 1
    26   22   23 1
    27   23   24 1
    28   24   25 1
    29    1   26 1
    30    2   27 1
    31    7   28 1
    32    8   29 1
    33    9   30 1
    34   12   31 1
    35   12   32 1
    36   16   33 1
    37   17   34 1
    38   18   35 1
    39   20   36 1
    40   22   37 1
    41   23   38 1
    42   23   39 1
    43   24   40 1
    44   24   41 1
    45   25   42 1
@<TRIPOS>PROPERTY_DATA
  Total_Score	| 1.8827
  Crash		| -1.6596
  Polar		| 0.0000
  FragIndex	| 1
  FragRMSD	| 1.066

