@<TRIPOS>MOLECULE
BindingDB_35556
 32 35 0 0 0
SMALL
NO_CHARGES


@<TRIPOS>ATOM
1    C        22.4342   44.4474   83.3194  C     
2    C        21.4614   45.0679   84.1195  C     
3    C        20.2092   45.4002   83.5780  C     
4    C        19.9271   45.1305   82.2210  C     
5    C        20.9129   44.4991   81.4076  C     
6    C        22.1775   44.1528   81.9572  C     
7    C        18.6838   45.4878   81.6566  C     
8    C        18.4174   45.2254   80.3030  C     
9    C        19.3813   44.5902   79.5041  C     
10   C        20.6395   44.2170   80.0413  C     
11   C        23.1204   43.5379   81.1196  C     
12   C        21.6358   43.5829   79.2838  C     
13   N        22.8331   43.2647   79.8270  N     
14   O        24.2224   43.2643   81.5896  O     
15   O        21.3834   43.3081   78.1124  O     
16   C        23.7778   42.6294   79.0438  C     
17   C        25.4649   42.6847   77.2709  C     
18   C        24.5396   43.3496   78.0969  C     
19   C        23.9586   41.2318   79.1525  C     
20   C        24.8686   40.5637   78.3156  C     
21   C        25.6270   41.2919   77.3769  C     
22   Br       25.0240   38.7153   78.4298  Br    
23   H        23.3335   44.2137   83.7447  H     
24   H        21.6685   45.2840   85.0973  H     
25   H        19.5123   45.8483   84.1795  H     
26   H        17.9656   45.9454   82.2235  H     
27   H        17.5162   45.4915   79.8982  H     
28   H        19.1527   44.4081   78.5227  H     
29   H        26.0062   43.2130   76.5821  H     
30   H        24.4210   44.3631   78.0034  H     
31   H        23.4216   40.6987   79.8327  H     
32   H        26.2921   40.8060   76.7722  H     
@<TRIPOS>BOND
     1    1    2 1
     2    1    6 2
     3    2    3 2
     4    3    4 1
     5    4    5 2
     6    4    7 1
     7    5    6 1
     8    5   10 1
     9    6   11 1
    10    7    8 2
    11    8    9 1
    12    9   10 2
    13   10   12 1
    14   11   13 1
    15   11   14 2
    16   12   13 1
    17   12   15 2
    18   13   16 1
    19   16   18 1
    20   16   19 2
    21   17   18 2
    22   17   21 1
    23   19   20 1
    24   20   21 2
    25   20   22 1
    26    1   23 1
    27    2   24 1
    28    3   25 1
    29    7   26 1
    30    8   27 1
    31    9   28 1
    32   17   29 1
    33   18   30 1
    34   19   31 1
    35   21   32 1
@<TRIPOS>PROPERTY_DATA
  Total_Score	| 2.0998
  Crash		| -1.4039
  Polar		| 0.0000
  FragIndex	| 1
  FragRMSD	| 0.145

