@<TRIPOS>MOLECULE
BindingDB_35557
 34 37 0 0 0
SMALL
NO_CHARGES


@<TRIPOS>ATOM
1    C        19.4217   44.5714   79.5164  C     
2    C        18.4594   45.2026   80.3180  C     
3    C        18.7191   45.4707   81.6747  C     
4    C        19.9676   45.1018   82.2411  C     
5    C        20.9485   44.4653   81.4187  C     
6    C        20.6777   44.1971   80.0489  C     
7    C        20.2767   45.3520   83.6008  C     
8    C        21.5261   44.9968   84.1293  C     
9    C        22.4816   44.3700   83.3181  C     
10   C        22.2113   44.0930   81.9560  C     
11   C        21.6718   43.5730   79.2777  C     
12   C        23.1474   43.4718   81.1156  C     
13   N        22.8641   43.2322   79.8147  N     
14   O        21.4225   43.3343   78.0970  O     
15   O        24.2419   43.1709   81.5874  O     
16   C        23.8169   42.6304   79.0185  C     
17   C        25.5706   42.7750   77.3160  C     
18   C        24.6034   43.3965   78.1277  C     
19   C        24.0176   41.2343   79.0822  C     
20   C        24.9756   40.6151   78.2643  C     
21   C        25.7593   41.3831   77.3885  C     
22   Br       25.1794   38.7735   78.3413  Br    
23   N        17.7437   46.0729   82.3824  N     
24   H        19.1884   44.3885   78.5360  H     
25   H        17.5565   45.4531   79.9040  H     
26   H        19.6041   45.8063   84.2244  H     
27   H        21.7481   45.1994   85.1061  H     
28   H        23.3778   44.1154   83.7339  H     
29   H        26.1355   43.3378   76.6790  H     
30   H        24.4775   44.4083   78.0734  H     
31   H        23.4702   40.6625   79.7249  H     
32   H        26.4621   40.9249   76.8072  H     
33   H        17.8693   46.2815   83.3210  H     
34   H        16.9012   46.2957   81.9548  H     
@<TRIPOS>BOND
     1    1    2 1
     2    1    6 2
     3    2    3 2
     4    3    4 1
     5    3   23 1
     6    4    5 2
     7    4    7 1
     8    5    6 1
     9    5   10 1
    10    6   11 1
    11    7    8 2
    12    8    9 1
    13    9   10 2
    14   10   12 1
    15   11   13 1
    16   11   14 2
    17   12   13 1
    18   12   15 2
    19   13   16 1
    20   16   18 1
    21   16   19 2
    22   17   18 2
    23   17   21 1
    24   19   20 1
    25   20   21 2
    26   20   22 1
    27    1   24 1
    28    2   25 1
    29    7   26 1
    30    8   27 1
    31    9   28 1
    32   17   29 1
    33   18   30 1
    34   19   31 1
    35   21   32 1
    36   23   33 1
    37   23   34 1
@<TRIPOS>PROPERTY_DATA
  Total_Score	| 2.1923
  Crash		| -1.4421
  Polar		| 0.0000
  FragIndex	| 1
  FragRMSD	| 0.145

