@<TRIPOS>MOLECULE
BindingDB_35571
 52 56 0 0 0
SMALL
NO_CHARGES


@<TRIPOS>ATOM
1    C        19.2366   44.5806   79.3488  C     
2    C        18.2928   45.1965   80.1942  C     
3    C        18.5434   45.4362   81.5690  C     
4    C        19.8067   44.9862   82.0470  C     
5    C        20.7693   44.3502   81.2121  C     
6    C        20.4940   44.1554   79.8380  C     
7    C        20.1595   45.1744   83.3791  C     
8    C        21.3670   44.7444   83.9433  C     
9    C        22.2859   44.0971   83.1218  C     
10   C        22.0165   43.9089   81.7449  C     
11   C        21.4903   43.5597   79.0369  C     
12   C        22.9472   43.3311   80.8791  C     
13   N        22.6791   43.1814   79.5633  N     
14   C        23.6729   42.6552   78.7564  C     
15   C        25.7425   42.9943   77.5016  C     
16   C        24.5965   43.5177   78.1271  C     
17   C        23.9043   41.2622   78.7288  C     
18   C        25.0482   40.7383   78.1049  C     
19   C        25.9723   41.6057   77.4981  C     
20   N        17.5354   46.0939   82.2497  N     
21   C        17.1629   47.4490   82.6882  C     
22   O        21.2506   43.3960   77.8428  O     
23   O        24.0360   43.0004   81.3471  O     
24   Br       25.3480   38.9033   78.1555  Br    
25   C        14.6179   47.0998   82.1910  C     
26   C        14.6955   48.1122   81.0032  C     
27   C        16.1262   48.1091   80.3891  C     
28   C        17.2159   48.3994   81.4557  C     
29   C        15.7093   47.3975   83.2541  C     
30   C        13.6707   47.8903   79.9504  C     
31   O        14.0578   47.7616   78.6622  O     
32   O        12.3378   48.0193   80.1776  O     
33   H        18.9950   44.4513   78.3647  H     
34   H        17.4008   45.4808   79.7723  H     
35   H        19.5055   45.6356   83.9434  H     
36   H        21.5651   44.9153   84.9279  H     
37   H        23.1614   43.7791   83.5414  H     
38   H        26.4247   43.6250   77.0798  H     
39   H        24.4660   44.5281   78.1723  H     
40   H        23.2702   40.6264   79.2158  H     
41   H        26.8231   41.2244   77.0768  H     
42   H        16.8270   45.4748   82.4683  H     
43   H        17.7522   47.9674   83.4840  H     
44   H        13.6403   47.1756   82.6756  H     
45   H        14.7191   46.0770   81.8148  H     
46   H        14.5013   49.1122   81.4090  H     
47   H        16.3226   47.1359   79.9319  H     
48   H        16.1969   48.8746   79.6093  H     
49   H        17.1004   49.4312   81.7976  H     
50   H        18.2051   48.3252   80.9951  H     
51   H        15.6700   46.6354   84.0297  H     
52   H        15.4820   48.3555   83.7282  H     
@<TRIPOS>BOND
     1    1    2 1
     2    1    6 2
     3    2    3 2
     4    3    4 1
     5    3   20 1
     6    4    5 2
     7    4    7 1
     8    5    6 1
     9    5   10 1
    10    6   11 1
    11    7    8 2
    12    8    9 1
    13    9   10 2
    14   10   12 1
    15   11   13 1
    16   11   22 2
    17   12   13 1
    18   12   23 2
    19   13   14 1
    20   14   16 1
    21   14   17 2
    22   15   16 2
    23   15   19 1
    24   17   18 1
    25   18   19 2
    26   18   24 1
    27   21   20 1
    28   21   28 1
    29   21   29 1
    30   25   26 1
    31   25   29 1
    32   26   27 1
    33   26   30 1
    34   27   28 1
    35   30   31 2
    36   30   32 1
    37    1   33 1
    38    2   34 1
    39    7   35 1
    40    8   36 1
    41    9   37 1
    42   15   38 1
    43   16   39 1
    44   17   40 1
    45   19   41 1
    46   20   42 1
    47   21   43 1
    48   25   44 1
    49   25   45 1
    50   26   46 1
    51   27   47 1
    52   27   48 1
    53   28   49 1
    54   28   50 1
    55   29   51 1
    56   29   52 1
@<TRIPOS>PROPERTY_DATA
  Total_Score	| 4.4375
  Crash		| -1.8105
  Polar		| 1.4706
  FragIndex	| 1
  FragRMSD	| 0.490

