@<TRIPOS>MOLECULE
BindingDB_35558
 40 43 0 0 0
SMALL
NO_CHARGES


@<TRIPOS>ATOM
1    C        19.6849   44.6905   79.2932  C     
2    C        18.6804   45.2836   80.0695  C     
3    C        18.7949   45.4143   81.4722  C     
4    C        19.9869   44.9165   82.0865  C     
5    C        20.9916   44.2639   81.2974  C     
6    C        20.8551   44.1753   79.8884  C     
7    C        20.2140   45.0055   83.4868  C     
8    C        21.3572   44.4485   84.0827  C     
9    C        22.3035   43.7796   83.2991  C     
10   C        22.1341   43.6723   81.9020  C     
11   C        21.8827   43.5734   79.1410  C     
12   C        23.0517   42.9925   81.0933  C     
13   N        22.9490   42.9972   79.7440  N     
14   O        21.8114   43.6455   77.9169  O     
15   O        23.9433   42.3583   81.6536  O     
16   C        23.9537   42.4061   78.9805  C     
17   C        24.6828   40.9670   77.1193  C     
18   C        23.6546   41.5945   77.8561  C     
19   C        25.3191   42.5634   79.3361  C     
20   C        26.3425   41.9206   78.6121  C     
21   C        26.0240   41.1290   77.4975  C     
22   Br       28.1127   42.0801   79.1436  Br    
23   N        17.7873   45.9468   82.2342  N     
24   C        16.3829   46.0942   81.9560  C     
25   C        15.8312   47.4445   82.4582  C     
26   H        19.5353   44.6131   78.2808  H     
27   H        17.8678   45.6375   79.5651  H     
28   H        19.5483   45.4673   84.1083  H     
29   H        21.4989   44.5191   85.0890  H     
30   H        23.1168   43.3692   83.7666  H     
31   H        24.4560   40.3689   76.3252  H     
32   H        22.6882   41.4392   77.5706  H     
33   H        25.5757   43.1328   80.1423  H     
34   H        26.7618   40.6631   76.9709  H     
35   H        18.0181   46.1694   83.1526  H     
36   H        16.1140   45.9773   80.9082  H     
37   H        15.8719   45.2927   82.5122  H     
38   H        16.0918   47.6067   83.5124  H     
39   H        14.7379   47.4532   82.3772  H     
40   H        16.2276   48.2699   81.8680  H     
@<TRIPOS>BOND
     1    1    2 1
     2    1    6 2
     3    2    3 2
     4    3    4 1
     5    3   23 1
     6    4    5 2
     7    4    7 1
     8    5    6 1
     9    5   10 1
    10    6   11 1
    11    7    8 2
    12    8    9 1
    13    9   10 2
    14   10   12 1
    15   11   13 1
    16   11   14 2
    17   12   13 1
    18   12   15 2
    19   13   16 1
    20   16   18 1
    21   16   19 2
    22   17   18 2
    23   17   21 1
    24   19   20 1
    25   20   21 2
    26   20   22 1
    27   23   24 1
    28   24   25 1
    29    1   26 1
    30    2   27 1
    31    7   28 1
    32    8   29 1
    33    9   30 1
    34   17   31 1
    35   18   32 1
    36   19   33 1
    37   21   34 1
    38   23   35 1
    39   24   36 1
    40   24   37 1
    41   25   38 1
    42   25   39 1
    43   25   40 1
@<TRIPOS>PROPERTY_DATA
  Total_Score	| 2.5901
  Crash		| -1.8521
  Polar		| 0.0000
  FragIndex	| 1
  FragRMSD	| 1.291

