@<TRIPOS>MOLECULE
BindingDB_35566
 46 49 0 0 0
SMALL
NO_CHARGES


@<TRIPOS>ATOM
1    C        19.5597   44.4268   79.3617  C     
2    C        18.5949   45.0859   80.1335  C     
3    C        18.7944   45.3501   81.5097  C     
4    C        19.9950   44.8676   82.1210  C     
5    C        20.9721   44.1771   81.3321  C     
6    C        20.7714   43.9894   79.9376  C     
7    C        20.2851   45.0594   83.4988  C     
8    C        21.4777   44.5885   84.0699  C     
9    C        22.4179   43.9099   83.2881  C     
10   C        22.1762   43.6861   81.9128  C     
11   C        21.7955   43.4016   79.1755  C     
12   C        23.0946   43.0074   81.0972  C     
13   N        22.9179   42.9269   79.7598  N     
14   C        23.9204   42.3629   78.9781  C     
15   C        24.6306   40.8403   77.1976  C     
16   C        23.6086   41.4272   77.9658  C     
17   C        25.2797   42.7018   79.1945  C     
18   C        26.3036   42.0938   78.4437  C     
19   C        25.9793   41.1563   77.4430  C     
20   N        17.8990   46.0695   82.2499  N     
21   O        21.6678   43.3614   77.9535  O     
22   O        24.0605   42.4669   81.6313  O     
23   Br       28.0912   42.5003   78.7838  Br    
24   C        16.7937   46.9040   81.8702  C     
25   C        15.4906   46.5486   82.6518  C     
26   C        15.6717   46.6627   84.1924  C     
27   C        14.3063   47.4423   82.1826  C     
28   H        19.3734   44.2918   78.3626  H     
29   H        17.7575   45.3959   79.6437  H     
30   H        19.6401   45.5470   84.1206  H     
31   H        21.6646   44.7441   85.0620  H     
32   H        23.2840   43.5951   83.7316  H     
33   H        24.3980   40.1511   76.4773  H     
34   H        22.6322   41.1657   77.8012  H     
35   H        25.5190   43.3864   79.9155  H     
36   H        26.7201   40.7014   76.9024  H     
37   H        18.0646   46.0726   83.2000  H     
38   H        17.0768   47.9376   82.1002  H     
39   H        16.5783   46.8579   80.8005  H     
40   H        15.2264   45.5113   82.4184  H     
41   H        16.4153   45.9475   84.5439  H     
42   H        14.7284   46.4406   84.6994  H     
43   H        15.9923   47.6700   84.4735  H     
44   H        14.5205   48.4960   82.3740  H     
45   H        13.3872   47.1672   82.7062  H     
46   H        14.1373   47.3134   81.1111  H     
@<TRIPOS>BOND
     1    1    2 1
     2    1    6 2
     3    2    3 2
     4    3    4 1
     5    3   20 1
     6    4    5 2
     7    4    7 1
     8    5    6 1
     9    5   10 1
    10    6   11 1
    11    7    8 2
    12    8    9 1
    13    9   10 2
    14   10   12 1
    15   11   13 1
    16   11   21 2
    17   12   13 1
    18   12   22 2
    19   13   14 1
    20   14   16 1
    21   14   17 2
    22   15   16 2
    23   15   19 1
    24   17   18 1
    25   18   19 2
    26   18   23 1
    27   20   24 1
    28   24   25 1
    29   25   26 1
    30   25   27 1
    31    1   28 1
    32    2   29 1
    33    7   30 1
    34    8   31 1
    35    9   32 1
    36   15   33 1
    37   16   34 1
    38   17   35 1
    39   19   36 1
    40   20   37 1
    41   24   38 1
    42   24   39 1
    43   25   40 1
    44   26   41 1
    45   26   42 1
    46   26   43 1
    47   27   44 1
    48   27   45 1
    49   27   46 1
@<TRIPOS>PROPERTY_DATA
  Total_Score	| 3.3509
  Crash		| -1.9892
  Polar		| 0.0000
  FragIndex	| 1
  FragRMSD	| 0.726

