@<TRIPOS>MOLECULE
BindingDB_35555
 41 44 0 0 0
SMALL
NO_CHARGES


@<TRIPOS>ATOM
1    C        19.6106   44.6569   79.4108  C     
2    C        18.6296   45.2543   80.2161  C     
3    C        18.7873   45.3583   81.6200  C     
4    C        20.0030   44.8787   82.1995  C     
5    C        20.9912   44.2532   81.3741  C     
6    C        20.7989   44.1418   79.9743  C     
7    C        20.2702   44.9927   83.5885  C     
8    C        21.4570   44.5046   84.1444  C     
9    C        22.4054   43.8753   83.3362  C     
10   C        22.1949   43.7465   81.9401  C     
11   C        21.8137   43.5595   79.1945  C     
12   C        23.1293   43.1347   81.0959  C     
13   N        22.9408   43.0699   79.7562  N     
14   O        21.6541   43.5218   77.9772  O     
15   O        24.1338   42.6342   81.6075  O     
16   C        23.9328   42.5148   78.9538  C     
17   C        24.7185   40.7394   77.4612  C     
18   C        23.6838   41.3468   78.1942  C     
19   C        25.2312   43.0834   78.9152  C     
20   C        26.2495   42.4920   78.1489  C     
21   C        26.0003   41.3136   77.4287  C     
22   N        17.8077   45.8852   82.4042  N     
23   C        16.5461   46.4413   82.0216  C     
24   C        15.6145   46.5379   83.2493  C     
25   O        15.1043   45.2415   83.5981  O     
26   H        19.4365   44.6044   78.4001  H     
27   H        17.7856   45.6088   79.7520  H     
28   H        19.6195   45.4527   84.2252  H     
29   H        21.6312   44.5952   85.1484  H     
30   H        23.2618   43.5244   83.7732  H     
31   H        24.5427   39.8698   76.9585  H     
32   H        22.7570   40.9131   78.2085  H     
33   H        25.4356   43.9326   79.4458  H     
34   H        27.1783   42.9138   78.1229  H     
35   H        26.7443   40.8583   76.9042  H     
36   H        17.9856   45.9052   83.3544  H     
37   H        16.7210   47.4400   81.6262  H     
38   H        16.0426   45.8379   81.2708  H     
39   H        16.1523   46.9392   84.1163  H     
40   H        14.7663   47.2020   83.0359  H     
41   H        14.5134   45.0029   82.8448  H     
@<TRIPOS>BOND
     1    1    2 1
     2    1    6 2
     3    2    3 2
     4    3    4 1
     5    3   22 1
     6    4    5 2
     7    4    7 1
     8    5    6 1
     9    5   10 1
    10    6   11 1
    11    7    8 2
    12    8    9 1
    13    9   10 2
    14   10   12 1
    15   11   13 1
    16   11   14 2
    17   12   13 1
    18   12   15 2
    19   13   16 1
    20   16   18 1
    21   16   19 2
    22   17   18 2
    23   17   21 1
    24   19   20 1
    25   20   21 2
    26   22   23 1
    27   23   24 1
    28   24   25 1
    29    1   26 1
    30    2   27 1
    31    7   28 1
    32    8   29 1
    33    9   30 1
    34   17   31 1
    35   18   32 1
    36   19   33 1
    37   20   34 1
    38   21   35 1
    39   22   36 1
    40   23   37 1
    41   23   38 1
    42   24   39 1
    43   24   40 1
    44   25   41 1
@<TRIPOS>PROPERTY_DATA
  Total_Score	| 3.5483
  Crash		| -1.6804
  Polar		| 1.0487
  FragIndex	| 1
  FragRMSD	| 0.816

