@<TRIPOS>MOLECULE
BindingDB_35553
 41 44 0 0 0
SMALL
NO_CHARGES


@<TRIPOS>ATOM
1    C        19.3610   44.5428   79.5087  C     
2    C        18.4191   45.2198   80.2887  C     
3    C        18.6748   45.5535   81.6402  C     
4    C        19.8938   45.0958   82.2279  C     
5    C        20.8814   44.4595   81.4036  C     
6    C        20.6154   44.1779   80.0351  C     
7    C        20.2354   45.3455   83.5843  C     
8    C        21.4881   44.9755   84.1051  C     
9    C        22.4413   44.3611   83.2834  C     
10   C        22.1566   44.0910   81.9249  C     
11   C        21.5957   43.5459   79.2550  C     
12   C        23.0952   43.4852   81.0684  C     
13   N        22.8020   43.2345   79.7719  N     
14   O        21.3316   43.2815   78.0849  O     
15   O        24.2015   43.2028   81.5244  O     
16   C        23.7581   42.6442   78.9619  C     
17   C        25.5503   42.8299   77.3072  C     
18   C        24.5547   43.4281   78.0976  C     
19   C        23.9640   41.2496   79.0059  C     
20   C        24.9518   40.6503   78.2092  C     
21   C        25.7544   41.4416   77.3694  C     
22   Br       25.1826   38.8079   78.2748  Br    
23   N        17.7932   46.3159   82.3603  N     
24   C        16.3846   46.5234   82.1247  C     
25   C        15.4924   46.4660   83.3870  C     
26   O        15.0356   45.1643   83.7499  O     
27   H        19.1291   44.3555   78.5285  H     
28   H        17.5302   45.4463   79.8440  H     
29   H        19.5662   45.7696   84.2301  H     
30   H        21.7125   45.1642   85.0810  H     
31   H        23.3421   44.1148   83.6850  H     
32   H        26.1288   43.4078   76.6980  H     
33   H        24.4139   44.4439   78.0528  H     
34   H        23.4008   40.6692   79.6258  H     
35   H        26.4830   41.0069   76.8062  H     
36   H        18.1632   46.8977   83.0452  H     
37   H        16.3049   47.5516   81.7033  H     
38   H        15.9692   45.8630   81.3628  H     
39   H        16.0351   46.8703   84.2536  H     
40   H        14.6140   47.1000   83.2302  H     
41   H        14.4540   44.8677   82.9958  H     
@<TRIPOS>BOND
     1    1    2 1
     2    1    6 2
     3    2    3 2
     4    3    4 1
     5    3   23 1
     6    4    5 2
     7    4    7 1
     8    5    6 1
     9    5   10 1
    10    6   11 1
    11    7    8 2
    12    8    9 1
    13    9   10 2
    14   10   12 1
    15   11   13 1
    16   11   14 2
    17   12   13 1
    18   12   15 2
    19   13   16 1
    20   16   18 1
    21   16   19 2
    22   17   18 2
    23   17   21 1
    24   19   20 1
    25   20   21 2
    26   20   22 1
    27   23   24 1
    28   24   25 1
    29   25   26 1
    30    1   27 1
    31    2   28 1
    32    7   29 1
    33    8   30 1
    34    9   31 1
    35   17   32 1
    36   18   33 1
    37   19   34 1
    38   21   35 1
    39   23   36 1
    40   24   37 1
    41   24   38 1
    42   25   39 1
    43   25   40 1
    44   26   41 1
@<TRIPOS>PROPERTY_DATA
  Total_Score	| 2.9503
  Crash		| -1.5223
  Polar		| 1.1317
  FragIndex	| 1
  FragRMSD	| 0.689

