@<TRIPOS>MOLECULE
BindingDB_35567
 50 54 0 0 0
SMALL
NO_CHARGES


@<TRIPOS>ATOM
1    C        19.6236   44.3734   79.2349  C     
2    C        18.6284   45.0156   79.9743  C     
3    C        18.7684   45.2695   81.3608  C     
4    C        19.9958   44.8870   81.9844  C     
5    C        21.0122   44.2156   81.2259  C     
6    C        20.8240   43.9530   79.8426  C     
7    C        20.2655   45.1595   83.3534  C     
8    C        21.4750   44.7758   83.9484  C     
9    C        22.4426   44.0943   83.2018  C     
10   C        22.2301   43.7986   81.8348  C     
11   C        21.8384   43.2987   79.1265  C     
12   C        23.1753   43.1114   81.0563  C     
13   N        22.9753   42.8882   79.7344  N     
14   C        23.9554   42.2267   78.9973  C     
15   C        24.7148   40.2767   77.7061  C     
16   C        23.7006   40.9689   78.3951  C     
17   C        25.2499   42.7865   78.8501  C     
18   C        26.2632   42.0950   78.1569  C     
19   C        25.9936   40.8401   77.5845  C     
20   N        17.7768   45.8667   82.0924  N     
21   C        16.4506   46.2930   81.7295  C     
22   O        21.6807   43.1255   77.9197  O     
23   O        24.1888   42.6914   81.6138  O     
24   Br       27.9752   42.8067   78.0306  Br    
25   C        16.3974   48.3455   83.3129  C     
26   C        15.3164   47.6471   84.1826  C     
27   C        15.4307   46.1036   84.1064  C     
28   C        15.4029   45.5915   82.6424  C     
29   C        16.3508   47.8411   81.8461  C     
30   H        19.4557   44.2156   78.2376  H     
31   H        17.8005   45.3041   79.4598  H     
32   H        19.5946   45.6463   83.9494  H     
33   H        21.6562   44.9884   84.9328  H     
34   H        23.3135   43.8205   83.6644  H     
35   H        24.5256   39.3541   77.3007  H     
36   H        22.7775   40.5384   78.4765  H     
37   H        25.4605   43.6994   79.2591  H     
38   H        26.7319   40.3299   77.0911  H     
39   H        17.9817   46.0236   83.0261  H     
40   H        16.1930   46.0314   80.7013  H     
41   H        16.2256   49.4255   83.3291  H     
42   H        17.3867   48.1515   83.7371  H     
43   H        15.4294   47.9668   85.2239  H     
44   H        14.3211   47.9552   83.8421  H     
45   H        16.3614   45.7883   84.5885  H     
46   H        14.5945   45.6553   84.6488  H     
47   H        14.4051   45.7647   82.2282  H     
48   H        15.5737   44.5119   82.6381  H     
49   H        17.1650   48.3025   81.2785  H     
50   H        15.4090   48.1677   81.3901  H     
@<TRIPOS>BOND
     1    1    2 1
     2    1    6 2
     3    2    3 2
     4    3    4 1
     5    3   20 1
     6    4    5 2
     7    4    7 1
     8    5    6 1
     9    5   10 1
    10    6   11 1
    11    7    8 2
    12    8    9 1
    13    9   10 2
    14   10   12 1
    15   11   13 1
    16   11   22 2
    17   12   13 1
    18   12   23 2
    19   13   14 1
    20   14   16 1
    21   14   17 2
    22   15   16 2
    23   15   19 1
    24   17   18 1
    25   18   19 2
    26   18   24 1
    27   20   21 1
    28   21   28 1
    29   21   29 1
    30   25   26 1
    31   25   29 1
    32   26   27 1
    33   27   28 1
    34    1   30 1
    35    2   31 1
    36    7   32 1
    37    8   33 1
    38    9   34 1
    39   15   35 1
    40   16   36 1
    41   17   37 1
    42   19   38 1
    43   20   39 1
    44   21   40 1
    45   25   41 1
    46   25   42 1
    47   26   43 1
    48   26   44 1
    49   27   45 1
    50   27   46 1
    51   28   47 1
    52   28   48 1
    53   29   49 1
    54   29   50 1
@<TRIPOS>PROPERTY_DATA
  Total_Score	| 4.0642
  Crash		| -1.6179
  Polar		| 0.0000
  FragIndex	| 1
  FragRMSD	| 1.447

