@<TRIPOS>MOLECULE
BindingDB_35568
 46 49 0 0 0
SMALL
NO_CHARGES


@<TRIPOS>ATOM
1    C        19.3997   44.6642   79.5261  C     
2    C        18.4388   45.2726   80.3461  C     
3    C        18.7029   45.5418   81.7089  C     
4    C        19.9754   45.1791   82.2471  C     
5    C        20.9312   44.5134   81.4175  C     
6    C        20.6391   44.2425   80.0542  C     
7    C        20.3221   45.4247   83.6009  C     
8    C        21.5572   45.0163   84.1228  C     
9    C        22.4783   44.3541   83.3056  C     
10   C        22.1814   44.0866   81.9484  C     
11   C        21.6103   43.5923   79.2718  C     
12   C        23.1008   43.4604   81.0977  C     
13   N        22.7997   43.2346   79.7995  N     
14   C        23.7421   42.6349   78.9886  C     
15   C        25.4734   42.7830   77.2701  C     
16   C        24.5066   43.4025   78.0844  C     
17   C        23.9480   41.2421   79.0615  C     
18   C        24.9026   40.6222   78.2414  C     
19   C        25.6745   41.3916   77.3542  C     
20   N        17.7577   46.1000   82.5199  N     
21   C        16.4116   46.4728   82.1892  C     
22   O        21.3434   43.3447   78.0971  O     
23   O        24.2005   43.1469   81.5510  O     
24   Br       25.1218   38.7802   78.3385  Br    
25   C        15.6107   46.7165   83.4933  C     
26   N        14.1565   46.4374   83.3898  N     
27   C        13.7622   45.0152   83.3036  C     
28   H        19.1761   44.5140   78.5384  H     
29   H        17.5522   45.5606   79.9209  H     
30   H        19.6875   45.9139   84.2335  H     
31   H        21.8014   45.2308   85.0915  H     
32   H        23.3725   44.0735   83.7159  H     
33   H        26.0274   43.3440   76.6220  H     
34   H        24.3692   44.4137   78.0223  H     
35   H        23.4091   40.6781   79.7186  H     
36   H        26.3804   40.9396   76.7748  H     
37   H        17.9705   46.1401   83.4676  H     
38   H        16.4055   47.3779   81.5563  H     
39   H        15.9492   45.6449   81.6433  H     
40   H        16.0273   46.1068   84.3083  H     
41   H        15.7300   47.7581   83.7890  H     
42   H        13.7075   46.8204   84.2236  H     
43   H        13.7882   46.9267   82.5747  H     
44   H        14.1461   44.5477   82.3980  H     
45   H        12.6760   44.9533   83.2842  H     
46   H        14.1286   44.4647   84.1700  H     
@<TRIPOS>BOND
     1    1    2 1
     2    1    6 2
     3    2    3 2
     4    3    4 1
     5    3   20 1
     6    4    5 2
     7    4    7 1
     8    5    6 1
     9    5   10 1
    10    6   11 1
    11    7    8 2
    12    8    9 1
    13    9   10 2
    14   10   12 1
    15   11   13 1
    16   11   22 2
    17   12   13 1
    18   12   23 2
    19   13   14 1
    20   14   16 1
    21   14   17 2
    22   15   16 2
    23   15   19 1
    24   17   18 1
    25   18   19 2
    26   18   24 1
    27   20   21 1
    28   21   25 1
    29   25   26 1
    30   26   27 1
    31    1   28 1
    32    2   29 1
    33    7   30 1
    34    8   31 1
    35    9   32 1
    36   15   33 1
    37   16   34 1
    38   17   35 1
    39   19   36 1
    40   20   37 1
    41   21   38 1
    42   21   39 1
    43   25   40 1
    44   25   41 1
    45   26   42 1
    46   26   43 1
    47   27   44 1
    48   27   45 1
    49   27   46 1
@<TRIPOS>PROPERTY_DATA
  Total_Score	| 3.0366
  Crash		| -2.1040
  Polar		| 0.0000
  FragIndex	| 1
  FragRMSD	| 0.317

