@<TRIPOS>MOLECULE
BindingDB_35560
 44 47 0 0 0
SMALL
NO_CHARGES


@<TRIPOS>ATOM
1    C        19.3977   44.6753   79.5001  C     
2    C        18.4268   45.2557   80.3220  C     
3    C        18.6909   45.5317   81.6855  C     
4    C        19.9707   45.2052   82.2247  C     
5    C        20.9286   44.5438   81.3969  C     
6    C        20.6486   44.2848   80.0276  C     
7    C        20.2893   45.4088   83.5914  C     
8    C        21.5257   45.0021   84.1123  C     
9    C        22.4603   44.3604   83.2877  C     
10   C        22.1765   44.1134   81.9235  C     
11   C        21.6275   43.6492   79.2392  C     
12   C        23.0952   43.4821   81.0714  C     
13   N        22.8070   43.2655   79.7695  N     
14   O        21.3702   43.4249   78.0557  O     
15   O        24.1816   43.1387   81.5344  O     
16   C        23.7269   42.6256   78.9680  C     
17   C        25.4169   42.6706   77.2043  C     
18   C        24.4803   43.3421   78.0135  C     
19   C        23.9134   41.2321   79.0915  C     
20   C        24.8327   40.5651   78.2731  C     
21   C        25.5951   41.2808   77.3391  C     
22   Br       25.0204   38.7217   78.4273  Br    
23   N        17.7373   46.1285   82.4603  N     
24   C        16.3039   45.9206   82.4104  C     
25   C        15.5457   47.0088   83.1837  C     
26   O        14.1190   46.8856   83.0733  O     
27   C        13.5493   45.6271   83.4846  C     
28   H        19.1607   44.4756   78.5237  H     
29   H        17.5422   45.5178   79.8790  H     
30   H        19.6353   45.8621   84.2332  H     
31   H        21.7568   45.1795   85.0933  H     
32   H        23.3526   44.0677   83.7032  H     
33   H        25.9660   43.1936   76.5221  H     
34   H        24.3530   44.3483   77.9056  H     
35   H        23.3747   40.7054   79.7797  H     
36   H        26.2749   40.7945   76.7562  H     
37   H        18.0469   46.6845   83.2105  H     
38   H        15.9089   45.8718   81.3709  H     
39   H        16.1339   44.9501   82.9027  H     
40   H        15.8633   47.0579   84.2267  H     
41   H        15.7850   47.9605   82.7333  H     
42   H        13.7907   44.8190   82.7903  H     
43   H        12.4612   45.6959   83.4966  H     
44   H        13.8836   45.3379   84.4897  H     
@<TRIPOS>BOND
     1    1    2 1
     2    1    6 2
     3    2    3 2
     4    3    4 1
     5    3   23 1
     6    4    5 2
     7    4    7 1
     8    5    6 1
     9    5   10 1
    10    6   11 1
    11    7    8 2
    12    8    9 1
    13    9   10 2
    14   10   12 1
    15   11   13 1
    16   11   14 2
    17   12   13 1
    18   12   15 2
    19   13   16 1
    20   16   18 1
    21   16   19 2
    22   17   18 2
    23   17   21 1
    24   19   20 1
    25   20   21 2
    26   20   22 1
    27   23   24 1
    28   24   25 1
    29   25   26 1
    30   26   27 1
    31    1   28 1
    32    2   29 1
    33    7   30 1
    34    8   31 1
    35    9   32 1
    36   17   33 1
    37   18   34 1
    38   19   35 1
    39   21   36 1
    40   23   37 1
    41   24   38 1
    42   24   39 1
    43   25   40 1
    44   25   41 1
    45   27   42 1
    46   27   43 1
    47   27   44 1
@<TRIPOS>PROPERTY_DATA
  Total_Score	| 3.0277
  Crash		| -1.7687
  Polar		| 0.0000
  FragIndex	| 1
  FragRMSD	| 0.370

