@<TRIPOS>MOLECULE
BindingDB_35563
 41 44 0 0 0
SMALL
NO_CHARGES


@<TRIPOS>ATOM
1    C        19.4638   44.5870   79.4327  C     
2    C        18.5274   45.2495   80.2401  C     
3    C        18.7557   45.4439   81.6175  C     
4    C        19.9641   44.9416   82.1921  C     
5    C        20.9047   44.2419   81.3666  C     
6    C        20.6610   44.0733   79.9808  C     
7    C        20.2513   45.0531   83.5749  C     
8    C        21.4341   44.5362   84.1233  C     
9    C        22.3561   43.8785   83.3001  C     
10   C        22.1111   43.7238   81.9183  C     
11   C        21.6188   43.4072   79.1956  C     
12   C        23.0238   43.0816   81.0614  C     
13   N        22.7666   42.9407   79.7437  N     
14   C        23.7008   42.3169   78.9307  C     
15   C        25.3831   42.4363   77.1583  C     
16   C        24.4334   43.0655   77.9816  C     
17   C        23.9376   40.9277   79.0431  C     
18   C        24.8909   40.2985   78.2211  C     
19   C        25.6128   41.0547   77.2826  C     
20   Cl       25.1654   38.6372   78.3574  Cl    
21   N        17.8809   46.1511   82.3938  N     
22   C        16.5138   46.5239   82.1869  C     
23   C        15.7371   46.4467   83.5317  C     
24   O        15.0308   45.2165   83.6678  O     
25   O        21.3889   43.2502   78.0018  O     
26   O        24.0797   42.6711   81.5409  O     
27   H        19.2553   44.4817   78.4361  H     
28   H        17.6927   45.6219   79.7814  H     
29   H        19.6158   45.5268   84.2206  H     
30   H        21.6264   44.6449   85.1203  H     
31   H        23.2077   43.5142   83.7277  H     
32   H        25.9064   42.9868   76.4774  H     
33   H        24.2766   44.0732   77.8899  H     
34   H        23.4156   40.3798   79.7283  H     
35   H        26.3036   40.6018   76.6872  H     
36   H        18.2341   46.4634   83.2424  H     
37   H        16.5082   47.5570   81.8464  H     
38   H        15.9955   45.9079   81.4520  H     
39   H        16.4082   46.5415   84.3930  H     
40   H        15.0071   47.2631   83.5979  H     
41   H        14.3576   45.2313   82.9417  H     
@<TRIPOS>BOND
     1    1    2 1
     2    1    6 2
     3    2    3 2
     4    3    4 1
     5    3   21 1
     6    4    5 2
     7    4    7 1
     8    5    6 1
     9    5   10 1
    10    6   11 1
    11    7    8 2
    12    8    9 1
    13    9   10 2
    14   10   12 1
    15   11   13 1
    16   11   25 2
    17   12   13 1
    18   12   26 2
    19   13   14 1
    20   14   16 1
    21   14   17 2
    22   15   16 2
    23   15   19 1
    24   17   18 1
    25   18   19 2
    26   18   20 1
    27   21   22 1
    28   22   23 1
    29   23   24 1
    30    1   27 1
    31    2   28 1
    32    7   29 1
    33    8   30 1
    34    9   31 1
    35   15   32 1
    36   16   33 1
    37   17   34 1
    38   19   35 1
    39   21   36 1
    40   22   37 1
    41   22   38 1
    42   23   39 1
    43   23   40 1
    44   24   41 1
@<TRIPOS>PROPERTY_DATA
  Total_Score	| 3.7027
  Crash		| -2.0524
  Polar		| 1.4846
  FragIndex	| 1
  FragRMSD	| 0.730

