@<TRIPOS>MOLECULE
BindingDB_35570
 63 68 0 0 0
SMALL
NO_CHARGES


@<TRIPOS>ATOM
1    C        19.2734   44.6399   79.5277  C     
2    C        18.3457   45.3501   80.2996  C     
3    C        18.6320   45.7289   81.6300  C     
4    C        19.8823   45.3339   82.1951  C     
5    C        20.8364   44.6256   81.3972  C     
6    C        20.5384   44.2875   80.0495  C     
7    C        20.2141   45.5893   83.5508  C     
8    C        21.4403   45.1823   84.0956  C     
9    C        22.3725   44.5118   83.2960  C     
10   C        22.0899   44.2268   81.9402  C     
11   C        21.5114   43.6189   79.2897  C     
12   C        23.0079   43.5631   81.1099  C     
13   N        22.7124   43.2938   79.8203  N     
14   C        23.6616   42.6800   79.0259  C     
15   C        25.3941   42.8082   77.3016  C     
16   C        24.4289   43.4369   78.1109  C     
17   C        23.8786   41.2874   79.1174  C     
18   C        24.8262   40.6568   78.2925  C     
19   C        25.5907   41.4183   77.3916  C     
20   N        17.7472   46.4515   82.3820  N     
21   C        16.3119   46.4766   82.3185  C     
22   O        21.2459   43.3272   78.1256  O     
23   O        24.1031   43.2580   81.5772  O     
24   Br       25.0381   38.8123   78.3843  Br    
25   C        14.1939   47.8395   82.7767  C     
26   N        13.7431   46.8573   83.8236  N     
27   C        14.2941   45.4860   83.5731  C     
28   C        15.8263   45.4821   83.4002  C     
29   C        15.7403   47.8885   82.6248  C     
30   C        12.2495   46.8617   83.9924  C     
31   C        11.7550   46.0916   85.1701  C     
32   C        10.8969   44.6174   87.4359  C     
33   C        10.9026   46.0232   87.4707  C     
34   C        11.3267   46.7537   86.3470  C     
35   C        11.7038   44.6754   85.1387  C     
36   C        11.2837   43.9420   86.2667  C     
37   H        19.0226   44.4091   78.5618  H     
38   H        17.4725   45.6244   79.8488  H     
39   H        19.5617   46.0511   84.1865  H     
40   H        21.6550   45.3767   85.0752  H     
41   H        23.2603   44.2337   83.7206  H     
42   H        25.9469   43.3635   76.6450  H     
43   H        24.2878   44.4473   78.0361  H     
44   H        23.3433   40.7294   79.7831  H     
45   H        26.2878   40.9617   76.8002  H     
46   H        18.0951   46.7900   83.2206  H     
47   H        15.9204   46.1565   81.3526  H     
48   H        13.7496   47.5837   81.8099  H     
49   H        13.8536   48.8420   83.0465  H     
50   H        14.1449   47.1761   84.7104  H     
51   H        14.0864   44.8380   84.4270  H     
52   H        13.8362   45.0377   82.6841  H     
53   H        16.1369   44.4770   83.1167  H     
54   H        16.2832   45.7333   84.3646  H     
55   H        16.1780   48.2771   83.5505  H     
56   H        16.0040   48.5749   81.8128  H     
57   H        11.9011   47.8933   84.1054  H     
58   H        11.7737   46.4810   83.0850  H     
59   H        10.6092   44.0836   88.2614  H     
60   H        10.6004   46.5133   88.3171  H     
61   H        11.3316   47.7749   86.3955  H     
62   H        11.9734   44.1687   84.2900  H     
63   H        11.2721   42.9223   86.2370  H     
@<TRIPOS>BOND
     1    1    2 1
     2    1    6 2
     3    2    3 2
     4    3    4 1
     5    3   20 1
     6    4    5 2
     7    4    7 1
     8    5    6 1
     9    5   10 1
    10    6   11 1
    11    7    8 2
    12    8    9 1
    13    9   10 2
    14   10   12 1
    15   11   13 1
    16   11   22 2
    17   12   13 1
    18   12   23 2
    19   13   14 1
    20   14   16 1
    21   14   17 2
    22   15   16 2
    23   15   19 1
    24   17   18 1
    25   18   19 2
    26   18   24 1
    27   20   21 1
    28   21   28 1
    29   21   29 1
    30   25   26 1
    31   25   29 1
    32   26   27 1
    33   26   30 1
    34   27   28 1
    35   30   31 1
    36   31   34 1
    37   31   35 2
    38   32   33 1
    39   32   36 2
    40   33   34 2
    41   35   36 1
    42    1   37 1
    43    2   38 1
    44    7   39 1
    45    8   40 1
    46    9   41 1
    47   15   42 1
    48   16   43 1
    49   17   44 1
    50   19   45 1
    51   20   46 1
    52   21   47 1
    53   25   48 1
    54   25   49 1
    55   26   50 1
    56   27   51 1
    57   27   52 1
    58   28   53 1
    59   28   54 1
    60   29   55 1
    61   29   56 1
    62   30   57 1
    63   30   58 1
    64   32   59 1
    65   33   60 1
    66   34   61 1
    67   35   62 1
    68   36   63 1
@<TRIPOS>PROPERTY_DATA
  Total_Score	| 5.6302
  Crash		| -3.0852
  Polar		| 0.0000
  FragIndex	| 1
  FragRMSD	| 0.289

