@<TRIPOS>MOLECULE
BindingDB_26485
 40 42 0 0 0
SMALL
NO_CHARGES


@<TRIPOS>ATOM
1    C        33.1496   45.4847   -1.2860  C     
2    C        34.8435   43.8060   -1.2665  C     
3    C        35.3744   44.3534   -2.4533  C     
4    C        34.7573   45.4948   -3.0253  C     
5    N        33.7338   44.3921   -0.7368  N     
6    N        33.6636   46.0215   -2.4178  N     
7    C        35.2662   46.0964   -4.2036  C     
8    C        34.4985   46.1346   -5.3918  C     
9    C        36.5626   46.6714   -4.2156  C     
10   C        37.0741   47.2693   -5.3865  C     
11   C        36.3031   47.2954   -6.5612  C     
12   C        35.0187   46.7192   -6.5689  C     
13   N        35.4136   42.6908   -0.7614  N     
14   C        35.0019   41.9646    0.3124  C     
15   C        34.1126   41.8018    2.6019  C     
16   C        34.0850   40.3989    2.4744  C     
17   C        34.5321   39.7806    1.2944  C     
18   C        34.9803   40.5599    0.2098  C     
19   C        34.6201   42.5695    1.5304  C     
20   N        33.6178   42.3336    3.7529  N     
21   C        32.8512   45.2833    3.7242  C     
22   S        33.8173   43.8902    4.3642  S     
23   O        33.2422   43.7695    5.8459  O     
24   O        35.3510   44.2587    4.5904  O     
25   H        32.3257   45.9024   -0.8604  H     
26   H        36.1789   43.9214   -2.9091  H     
27   H        33.5657   45.7132   -5.4205  H     
28   H        37.1337   46.6834   -3.3670  H     
29   H        38.0029   47.6997   -5.3718  H     
30   H        36.6792   47.7246   -7.4157  H     
31   H        34.4616   46.7363   -7.4266  H     
32   H        36.1669   42.3359   -1.2684  H     
33   H        33.7480   39.8142    3.2465  H     
34   H        34.5140   38.7604    1.2179  H     
35   H        35.2691   40.1030   -0.6565  H     
36   H        34.7261   43.5657    1.6344  H     
37   H        32.9845   41.7795    4.2455  H     
38   H        33.3210   45.6708    2.8150  H     
39   H        32.8062   46.0785    4.4664  H     
40   H        31.8358   44.9466    3.4899  H     
@<TRIPOS>BOND
     1    1    5 2
     2    1    6 1
     3    2    3 2
     4    2    5 1
     5    2   13 1
     6    3    4 1
     7    4    6 2
     8    4    7 1
     9    7    8 2
    10    7    9 1
    11    8   12 1
    12    9   10 2
    13   10   11 1
    14   11   12 2
    15   13   14 1
    16   14   18 2
    17   14   19 1
    18   15   16 1
    19   15   19 2
    20   15   20 1
    21   16   17 2
    22   17   18 1
    23   20   22 1
    24   21   22 1
    25   22   23 2
    26   22   24 2
    27    1   25 1
    28    3   26 1
    29    8   27 1
    30    9   28 1
    31   10   29 1
    32   11   30 1
    33   12   31 1
    34   13   32 1
    35   16   33 1
    36   17   34 1
    37   18   35 1
    38   19   36 1
    39   20   37 1
    40   21   38 1
    41   21   39 1
    42   21   40 1
@<TRIPOS>PROPERTY_DATA
  Total_Score	| 6.7485
  Crash		| -0.9693
  Polar		| 1.7401
  FragIndex	| 1
  FragRMSD	| 0.566

