@<TRIPOS>MOLECULE
BindingDB_26488
 40 42 0 0 0
SMALL
NO_CHARGES


@<TRIPOS>ATOM
1    C        32.6796   44.2407   -2.5242  C     
2    C        34.7344   43.6748   -1.4940  C     
3    C        35.4275   44.4403   -2.4542  C     
4    C        34.7082   45.0645   -3.5019  C     
5    N        33.3766   43.6076   -1.5494  N     
6    N        33.3508   44.9323   -3.4761  N     
7    C        35.3211   45.8196   -4.5501  C     
8    C        36.7189   45.7567   -4.8138  C     
9    C        34.5479   46.6756   -5.3825  C     
10   C        35.1353   47.4610   -6.3912  C     
11   C        36.5252   47.4125   -6.5940  C     
12   C        37.3160   46.5577   -5.8057  C     
13   N        35.4638   43.0015   -0.5767  N     
14   C        34.9697   42.1757    0.3742  C     
15   C        33.9841   41.8594    2.6018  C     
16   C        34.0908   40.4544    2.4317  C     
17   C        34.6480   39.9196    1.2525  C     
18   C        35.0920   40.7775    0.2287  C     
19   C        34.4103   42.7056    1.5519  C     
20   N        33.4646   42.3307    3.7679  N     
21   C        32.6158   45.1851    3.8359  C     
22   S        33.6796   43.8663    4.4456  S     
23   O        33.2834   43.6574    5.9673  O     
24   O        35.2130   44.2730    4.5134  O     
25   F        33.7318   39.6290    3.3765  F     
26   H        31.6653   44.1794   -2.5803  H     
27   H        36.4424   44.5602   -2.3676  H     
28   H        37.3192   45.1100   -4.3032  H     
29   H        33.5400   46.7652   -5.2435  H     
30   H        34.5552   48.0791   -6.9600  H     
31   H        36.9616   47.9968   -7.3089  H     
32   H        38.3224   46.5077   -5.9683  H     
33   H        36.4302   43.0389   -0.6760  H     
34   H        34.7579   38.9064    1.1525  H     
35   H        35.5019   40.3811   -0.6195  H     
36   H        34.3203   43.7222    1.6300  H     
37   H        32.9506   41.7071    4.2996  H     
38   H        32.8416   45.3958    2.7915  H     
39   H        32.7840   46.0851    4.4289  H     
40   H        31.5717   44.8836    3.9287  H     
@<TRIPOS>BOND
     1    1    5 2
     2    1    6 1
     3    2    3 2
     4    2    5 1
     5    2   13 1
     6    3    4 1
     7    4    6 2
     8    4    7 1
     9    7    8 2
    10    7    9 1
    11    8   12 1
    12    9   10 2
    13   10   11 1
    14   11   12 2
    15   13   14 1
    16   14   18 2
    17   14   19 1
    18   15   16 1
    19   15   19 2
    20   15   20 1
    21   16   17 2
    22   16   25 1
    23   17   18 1
    24   20   22 1
    25   21   22 1
    26   22   23 2
    27   22   24 2
    28    1   26 1
    29    3   27 1
    30    8   28 1
    31    9   29 1
    32   10   30 1
    33   11   31 1
    34   12   32 1
    35   13   33 1
    36   17   34 1
    37   18   35 1
    38   19   36 1
    39   20   37 1
    40   21   38 1
    41   21   39 1
    42   21   40 1
@<TRIPOS>PROPERTY_DATA
  Total_Score	| 6.7892
  Crash		| -0.9501
  Polar		| 1.4608
  FragIndex	| 1
  FragRMSD	| 0.803

