@<TRIPOS>MOLECULE
BindingDB_26486
 40 42 0 0 0
SMALL
NO_CHARGES


@<TRIPOS>ATOM
1    C        33.0946   45.3717   -1.4128  C     
2    C        34.7788   43.6833   -1.3699  C     
3    C        35.3173   44.2144   -2.5629  C     
4    C        34.7221   45.3595   -3.1590  C     
5    N        33.6737   44.2839   -0.8456  N     
6    N        33.6256   45.8862   -2.5489  N     
7    C        35.2226   45.9523   -4.3536  C     
8    C        36.6128   46.0897   -4.5876  C     
9    C        34.3254   46.4408   -5.3385  C     
10   C        34.8067   47.0384   -6.5186  C     
11   C        36.1898   47.1616   -6.7324  C     
12   C        37.0931   46.6935   -5.7663  C     
13   N        35.3619   42.5909   -0.8274  N     
14   C        34.9827   41.8952    0.2766  C     
15   C        34.1125   41.7827    2.5746  C     
16   C        34.0312   40.3756    2.4644  C     
17   C        34.4642   39.7402    1.2860  C     
18   C        34.9134   40.4981    0.1926  C     
19   C        34.6387   42.5290    1.4962  C     
20   N        33.6205   42.3694    3.7111  N     
21   C        32.8873   45.3037    3.5895  C     
22   S        33.8572   43.9355    4.2752  S     
23   O        33.2866   43.8741    5.7654  O     
24   O        35.4027   44.2843    4.4727  O     
25   Cl       33.4420   39.3849    3.7060  Cl    
26   H        32.2682   45.7998   -0.9940  H     
27   H        36.1196   43.7542   -3.0051  H     
28   H        37.2935   45.7702   -3.8967  H     
29   H        33.3175   46.3562   -5.2083  H     
30   H        34.1458   47.3789   -7.2200  H     
31   H        36.5342   47.5923   -7.5947  H     
32   H        38.0957   46.7902   -5.9203  H     
33   H        36.0791   42.2006   -1.3482  H     
34   H        34.4246   38.7237    1.1976  H     
35   H        35.1706   40.0329   -0.6742  H     
36   H        34.8077   43.5189    1.5996  H     
37   H        32.9708   41.8490    4.2277  H     
38   H        33.3488   45.6548    2.6641  H     
39   H        32.8696   46.1285    4.2974  H     
40   H        31.8618   44.9693    3.3833  H     
@<TRIPOS>BOND
     1    1    5 2
     2    1    6 1
     3    2    3 2
     4    2    5 1
     5    2   13 1
     6    3    4 1
     7    4    6 2
     8    4    7 1
     9    7    8 2
    10    7    9 1
    11    8   12 1
    12    9   10 2
    13   10   11 1
    14   11   12 2
    15   13   14 1
    16   14   18 2
    17   14   19 1
    18   15   16 1
    19   15   19 2
    20   15   20 1
    21   16   17 2
    22   16   25 1
    23   17   18 1
    24   20   22 1
    25   21   22 1
    26   22   23 2
    27   22   24 2
    28    1   26 1
    29    3   27 1
    30    8   28 1
    31    9   29 1
    32   10   30 1
    33   11   31 1
    34   12   32 1
    35   13   33 1
    36   17   34 1
    37   18   35 1
    38   19   36 1
    39   20   37 1
    40   21   38 1
    41   21   39 1
    42   21   40 1
@<TRIPOS>PROPERTY_DATA
  Total_Score	| 6.5720
  Crash		| -1.0550
  Polar		| 1.5383
  FragIndex	| 1
  FragRMSD	| 0.476

