@<TRIPOS>MOLECULE
BindingDB_26487
 40 42 0 0 0
SMALL
NO_CHARGES


@<TRIPOS>ATOM
1    C        32.8201   44.2177   -2.7316  C     
2    C        34.8600   43.6972   -1.6361  C     
3    C        35.5590   44.5051   -2.5534  C     
4    C        34.8412   45.1891   -3.5638  C     
5    N        33.5065   43.5794   -1.7541  N     
6    N        33.4909   45.0023   -3.6106  N     
7    C        35.4783   46.0359   -4.5235  C     
8    C        34.9051   46.2240   -5.8101  C     
9    C        36.6793   46.7337   -4.2343  C     
10   C        37.2988   47.5599   -5.1916  C     
11   C        36.7243   47.7112   -6.4639  C     
12   C        35.5200   47.0482   -6.7688  C     
13   N        35.5712   43.0406   -0.6912  N     
14   C        35.0496   42.2180    0.2527  C     
15   C        34.0128   41.9111    2.4596  C     
16   C        33.9369   40.5181    2.1961  C     
17   C        34.4188   39.9867    0.9836  C     
18   C        34.9802   40.8329    0.0154  C     
19   C        34.5775   42.7464    1.4687  C     
20   N        33.5213   42.3842    3.6436  N     
21   C        32.6521   45.2330    3.6957  C     
22   S        33.7183   43.9172    4.3137  S     
23   O        33.3544   43.7398    5.8511  O     
24   O        35.2493   44.3479    4.3674  O     
25   Br       33.2014   39.3111    3.4125  Br    
26   H        31.8113   44.0956   -2.8129  H     
27   H        36.5723   44.5786   -2.4937  H     
28   H        34.0324   45.7522   -6.0676  H     
29   H        37.1163   46.6689   -3.3150  H     
30   H        38.1611   48.0522   -4.9620  H     
31   H        37.1699   48.3154   -7.1646  H     
32   H        35.0917   47.1701   -7.6909  H     
33   H        36.5325   43.1031   -0.7405  H     
34   H        34.3664   38.9841    0.8002  H     
35   H        35.3263   40.4383   -0.8673  H     
36   H        34.6509   43.7563    1.6219  H     
37   H        32.9649   41.7832    4.1513  H     
38   H        32.9177   45.4667    2.6642  H     
39   H        32.7775   46.1307    4.3103  H     
40   H        31.6078   44.9137    3.7392  H     
@<TRIPOS>BOND
     1    1    5 2
     2    1    6 1
     3    2    3 2
     4    2    5 1
     5    2   13 1
     6    3    4 1
     7    4    6 2
     8    4    7 1
     9    7    8 2
    10    7    9 1
    11    8   12 1
    12    9   10 2
    13   10   11 1
    14   11   12 2
    15   13   14 1
    16   14   18 2
    17   14   19 1
    18   15   16 1
    19   15   19 2
    20   15   20 1
    21   16   17 2
    22   16   25 1
    23   17   18 1
    24   20   22 1
    25   21   22 1
    26   22   23 2
    27   22   24 2
    28    1   26 1
    29    3   27 1
    30    8   28 1
    31    9   29 1
    32   10   30 1
    33   11   31 1
    34   12   32 1
    35   13   33 1
    36   17   34 1
    37   18   35 1
    38   19   36 1
    39   20   37 1
    40   21   38 1
    41   21   39 1
    42   21   40 1
@<TRIPOS>PROPERTY_DATA
  Total_Score	| 6.3774
  Crash		| -1.7661
  Polar		| 1.6472
  FragIndex	| 1
  FragRMSD	| 0.942

