@<TRIPOS>MOLECULE
BindingDB_26498
 46 48 0 0 0
SMALL
NO_CHARGES


@<TRIPOS>ATOM
1    C        33.1513   45.4149   -1.3663  C     
2    C        34.7883   43.6832   -1.3406  C     
3    C        35.3332   44.2013   -2.5359  C     
4    C        34.7516   45.3524   -3.1265  C     
5    N        33.7034   44.3108   -0.8033  N     
6    N        33.6750   45.9173   -2.5118  N     
7    C        35.2863   45.9352   -4.3087  C     
8    C        36.6915   46.0764   -4.3960  C     
9    C        34.4755   46.3733   -5.3992  C     
10   C        35.1058   46.9420   -6.5326  C     
11   C        36.5017   47.0898   -6.5924  C     
12   C        37.2946   46.6563   -5.5228  C     
13   N        35.3416   42.5653   -0.8137  N     
14   C        34.9408   41.8588    0.2810  C     
15   C        34.0562   41.6806    2.5766  C     
16   C        33.9912   40.2667    2.4434  C     
17   C        34.4543   39.6705    1.2479  C     
18   C        34.9096   40.4569    0.1799  C     
19   C        34.5942   42.4544    1.5166  C     
20   C        33.4428   39.3909    3.5135  C     
21   N        33.5811   42.2481    3.7271  N     
22   C        32.9173   45.2216    3.6578  C     
23   S        33.8106   43.7970    4.3416  S     
24   O        33.1866   43.7144    5.8114  O     
25   O        35.3504   44.1345    4.5986  O     
26   C        32.9985   46.2116   -5.4022  C     
27   H        32.3459   45.8655   -0.9271  H     
28   H        36.1332   43.7417   -2.9800  H     
29   H        37.2922   45.7684   -3.6278  H     
30   H        34.5541   47.2457   -7.3387  H     
31   H        36.9387   47.5111   -7.4162  H     
32   H        38.3111   46.7595   -5.5646  H     
33   H        36.0397   42.1533   -1.3476  H     
34   H        34.4507   38.6547    1.1322  H     
35   H        35.1962   40.0055   -0.6944  H     
36   H        34.7438   43.4478    1.6340  H     
37   H        34.0333   39.5003    4.4202  H     
38   H        33.4512   38.3369    3.2381  H     
39   H        32.4104   39.6678    3.7287  H     
40   H        32.9434   41.7233    4.2376  H     
41   H        33.4131   45.5560    2.7429  H     
42   H        32.9251   46.0323    4.3822  H     
43   H        31.8791   44.9441    3.4243  H     
44   H        32.7466   45.1674   -5.2240  H     
45   H        32.5444   46.5085   -6.3493  H     
46   H        32.5530   46.8246   -4.6176  H     
@<TRIPOS>BOND
     1    1    5 2
     2    1    6 1
     3    2    3 2
     4    2    5 1
     5    2   13 1
     6    3    4 1
     7    4    6 2
     8    4    7 1
     9    7    8 2
    10    7    9 1
    11    8   12 1
    12    9   10 2
    13    9   26 1
    14   10   11 1
    15   11   12 2
    16   13   14 1
    17   14   18 2
    18   14   19 1
    19   15   16 1
    20   15   19 2
    21   15   21 1
    22   16   17 2
    23   16   20 1
    24   17   18 1
    25   21   23 1
    26   22   23 1
    27   23   24 2
    28   23   25 2
    29    1   27 1
    30    3   28 1
    31    8   29 1
    32   10   30 1
    33   11   31 1
    34   12   32 1
    35   13   33 1
    36   17   34 1
    37   18   35 1
    38   19   36 1
    39   20   37 1
    40   20   38 1
    41   20   39 1
    42   21   40 1
    43   22   41 1
    44   22   42 1
    45   22   43 1
    46   26   44 1
    47   26   45 1
    48   26   46 1
@<TRIPOS>PROPERTY_DATA
  Total_Score	| 7.4655
  Crash		| -1.4482
  Polar		| 1.2968
  FragIndex	| 1
  FragRMSD	| 0.430

