@<TRIPOS>MOLECULE
BindingDB_26484
 43 45 0 0 0
SMALL
NO_CHARGES


@<TRIPOS>ATOM
1    C        33.1160   45.4396   -1.2641  C     
2    C        34.8320   43.7908   -1.2286  C     
3    C        35.3415   44.3123   -2.4380  C     
4    C        34.7127   45.4264   -3.0413  C     
5    N        33.7258   44.3757   -0.6887  N     
6    N        33.6143   45.9421   -2.4222  N     
7    C        35.1685   45.9820   -4.2700  C     
8    C        36.5526   46.1212   -4.5537  C     
9    C        34.2411   46.4163   -5.2528  C     
10   C        34.6793   46.9438   -6.4792  C     
11   C        36.0584   47.0723   -6.7385  C     
12   C        36.9904   46.6689   -5.7769  C     
13   N        35.4339   42.7048   -0.6983  N     
14   C        35.0239   41.9471    0.3604  C     
15   C        34.1031   41.6745    2.6293  C     
16   C        34.0358   40.2665    2.4285  C     
17   C        34.4900   39.7227    1.2038  C     
18   C        34.9537   40.5573    0.1711  C     
19   C        34.6675   42.4892    1.6170  C     
20   C        33.4880   39.3457    3.4575  C     
21   N        33.6136   42.2085    3.7941  N     
22   C        32.8018   45.1284    3.6951  C     
23   S        33.8029   43.7787    4.3841  S     
24   O        33.2445   43.7300    5.8798  O     
25   O        35.3310   44.2109    4.5383  O     
26   H        32.2871   45.8577   -0.8462  H     
27   H        36.1187   43.8372   -2.8970  H     
28   H        37.2501   45.8421   -3.8669  H     
29   H        33.2359   46.3372   -5.0905  H     
30   H        34.0015   47.2373   -7.1836  H     
31   H        36.3758   47.4626   -7.6291  H     
32   H        37.9911   46.7642   -5.9586  H     
33   H        36.1806   42.3580   -1.2117  H     
34   H        34.4636   38.7170    1.0337  H     
35   H        35.2218   40.1458   -0.7267  H     
36   H        34.8273   43.4765    1.7905  H     
37   H        34.0627   39.4185    4.3791  H     
38   H        33.4971   38.3063    3.1408  H     
39   H        32.4546   39.6063    3.6780  H     
40   H        32.9488   41.6895    4.2743  H     
41   H        33.2577   45.4779    2.7595  H     
42   H        32.8125   45.9650    4.4054  H     
43   H        31.7718   44.7697    3.5210  H     
@<TRIPOS>BOND
     1    1    5 2
     2    1    6 1
     3    2    3 2
     4    2    5 1
     5    2   13 1
     6    3    4 1
     7    4    6 2
     8    4    7 1
     9    7    8 2
    10    7    9 1
    11    8   12 1
    12    9   10 2
    13   10   11 1
    14   11   12 2
    15   13   14 1
    16   14   18 2
    17   14   19 1
    18   15   16 1
    19   15   19 2
    20   15   21 1
    21   16   17 2
    22   16   20 1
    23   17   18 1
    24   21   23 1
    25   22   23 1
    26   23   24 2
    27   23   25 2
    28    1   26 1
    29    3   27 1
    30    8   28 1
    31    9   29 1
    32   10   30 1
    33   11   31 1
    34   12   32 1
    35   13   33 1
    36   17   34 1
    37   18   35 1
    38   19   36 1
    39   20   37 1
    40   20   38 1
    41   20   39 1
    42   21   40 1
    43   22   41 1
    44   22   42 1
    45   22   43 1
@<TRIPOS>PROPERTY_DATA
  Total_Score	| 7.5552
  Crash		| -1.2457
  Polar		| 1.7438
  FragIndex	| 1
  FragRMSD	| 0.467

