@<TRIPOS>MOLECULE
BindingDB_26497
 51 53 0 0 0
SMALL
NO_CHARGES


@<TRIPOS>ATOM
1    C        32.3660   44.1671   -2.3110  C     
2    C        34.4886   43.3310   -1.6433  C     
3    C        35.0954   44.0629   -2.6872  C     
4    C        34.2992   44.8623   -3.5540  C     
5    N        33.1378   43.4122   -1.4889  N     
6    N        32.9531   44.8640   -3.3148  N     
7    C        34.8124   45.6367   -4.6617  C     
8    C        36.1939   45.8620   -4.8759  C     
9    C        33.9395   46.2069   -5.6184  C     
10   C        34.4143   46.9473   -6.7213  C     
11   C        35.7963   47.1787   -6.9486  C     
12   C        36.6629   46.6050   -5.9803  C     
13   N        35.2610   42.5261   -0.8668  N     
14   C        34.8343   41.7644    0.1819  C     
15   C        33.9518   41.5631    2.4764  C     
16   C        33.9335   40.1440    2.3412  C     
17   C        34.4164   39.5621    1.1453  C     
18   C        34.8685   40.3604    0.0821  C     
19   C        34.4041   42.3512    1.3888  C     
20   C        33.4417   39.2471    3.4268  C     
21   N        33.5111   42.1253    3.6432  N     
22   C        32.6063   43.9982    5.5761  C     
23   S        33.7073   43.7117    4.1817  S     
24   O        35.2043   44.0047    4.6370  O     
25   O        33.2177   44.7581    3.0913  O     
26   N        36.2741   47.9127   -8.0309  N     
27   C        35.3981   48.7707   -8.8148  C     
28   C        37.6723   47.8499   -8.4413  C     
29   H        31.3554   44.1983   -2.1875  H     
30   H        36.1041   43.9874   -2.7990  H     
31   H        36.8946   45.4986   -4.2319  H     
32   H        32.9322   46.0927   -5.5349  H     
33   H        33.7130   47.3032   -7.3693  H     
34   H        37.6701   46.7267   -6.0504  H     
35   H        36.1894   42.4327   -1.1313  H     
36   H        34.4479   38.5447    1.0376  H     
37   H        35.1898   39.9079   -0.7781  H     
38   H        34.4187   43.3700    1.4588  H     
39   H        34.0341   39.3842    4.3340  H     
40   H        33.4900   38.1915    3.1514  H     
41   H        32.3982   39.4772    3.6477  H     
42   H        32.9708   41.5673    4.2215  H     
43   H        31.5767   43.8231    5.2663  H     
44   H        32.7114   45.0254    5.9227  H     
45   H        32.8567   43.3145    6.3878  H     
46   H        34.6257   48.1570   -9.2910  H     
47   H        35.8918   49.3312   -9.6131  H     
48   H        34.9306   49.5114   -8.1637  H     
49   H        38.3077   48.2471   -7.6487  H     
50   H        37.9079   48.4243   -9.3389  H     
51   H        37.9567   46.8124   -8.6468  H     
@<TRIPOS>BOND
     1    1    5 2
     2    1    6 1
     3    2    3 2
     4    2    5 1
     5    2   13 1
     6    3    4 1
     7    4    6 2
     8    4    7 1
     9    7    8 2
    10    7    9 1
    11    8   12 1
    12    9   10 2
    13   10   11 1
    14   11   12 2
    15   11   26 1
    16   13   14 1
    17   14   18 2
    18   14   19 1
    19   15   16 1
    20   15   19 2
    21   15   21 1
    22   16   17 2
    23   16   20 1
    24   17   18 1
    25   21   23 1
    26   22   23 1
    27   23   24 2
    28   23   25 2
    29   26   27 1
    30   26   28 1
    31    1   29 1
    32    3   30 1
    33    8   31 1
    34    9   32 1
    35   10   33 1
    36   12   34 1
    37   13   35 1
    38   17   36 1
    39   18   37 1
    40   19   38 1
    41   20   39 1
    42   20   40 1
    43   20   41 1
    44   21   42 1
    45   22   43 1
    46   22   44 1
    47   22   45 1
    48   27   46 1
    49   27   47 1
    50   27   48 1
    51   28   49 1
    52   28   50 1
    53   28   51 1
@<TRIPOS>PROPERTY_DATA
  Total_Score	| 8.1275
  Crash		| -1.5678
  Polar		| 1.7085
  FragIndex	| 1
  FragRMSD	| 1.153

