@<TRIPOS>MOLECULE
BindingDB_26499
 53 56 0 0 0
SMALL
NO_CHARGES


@<TRIPOS>ATOM
1    C        32.9483   45.3295   -1.3184  C     
2    C        34.7179   43.7474   -1.3035  C     
3    C        35.2602   44.3512   -2.4559  C     
4    C        34.6040   45.4741   -3.0162  C     
5    N        33.5736   44.2611   -0.7742  N     
6    N        33.4571   45.9184   -2.4256  N     
7    C        35.0963   46.1417   -4.1671  C     
8    C        36.4771   46.4020   -4.3449  C     
9    C        34.2139   46.5991   -5.1835  C     
10   C        34.6942   47.2600   -6.3198  C     
11   C        36.0880   47.5148   -6.5281  C     
12   C        36.9603   47.0551   -5.4849  C     
13   N        35.3220   42.6474   -0.7935  N     
14   C        34.9184   41.9062    0.2773  C     
15   C        34.0173   41.7020    2.5729  C     
16   C        34.0387   40.2818    2.4428  C     
17   C        34.5376   39.7056    1.2523  C     
18   C        34.9712   40.5067    0.1851  C     
19   C        34.4880   42.4875    1.4859  C     
20   C        33.5414   39.3774    3.5163  C     
21   N        33.5105   42.2740    3.7158  N     
22   C        32.7557   45.1801    3.6823  C     
23   S        33.7534   43.8245    4.3377  S     
24   O        33.3474   43.6950    5.8695  O     
25   O        35.2977   44.1976    4.4359  O     
26   C        36.5923   48.1849   -7.7066  C     
27   C        35.8649   48.1834   -8.9447  C     
28   C        37.8541   48.8693   -7.7149  C     
29   C        38.3681   49.4584   -8.8778  C     
30   C        37.6376   49.4215  -10.0862  C     
31   C        36.3760   48.7853  -10.1032  C     
32   H        32.0913   45.6835   -0.8970  H     
33   H        36.0970   43.9670   -2.9036  H     
34   H        37.1590   46.1269   -3.6240  H     
35   H        33.2002   46.4463   -5.0978  H     
36   H        33.9836   47.5757   -6.9859  H     
37   H        37.9726   47.1743   -5.5371  H     
38   H        36.0836   42.3146   -1.2913  H     
39   H        34.5832   38.6890    1.1376  H     
40   H        35.2867   40.0660   -0.6777  H     
41   H        34.4996   43.5038    1.5568  H     
42   H        34.1013   39.5496    4.4319  H     
43   H        33.6428   38.3239    3.2523  H     
44   H        32.4839   39.5791    3.6995  H     
45   H        32.9406   41.7117    4.2587  H     
46   H        33.0150   45.3939    2.6437  H     
47   H        32.9382   46.0771    4.2829  H     
48   H        31.6982   44.9087    3.7428  H     
49   H        34.9520   47.7198   -9.0391  H     
50   H        38.4278   48.9730   -6.8689  H     
51   H        39.2764   49.9380   -8.8476  H     
52   H        38.0122   49.8557  -10.9354  H     
53   H        35.8347   48.7513  -10.9774  H     
@<TRIPOS>BOND
     1    1    5 2
     2    1    6 1
     3    2    3 2
     4    2    5 1
     5    2   13 1
     6    3    4 1
     7    4    6 2
     8    4    7 1
     9    7    8 2
    10    7    9 1
    11    8   12 1
    12    9   10 2
    13   10   11 1
    14   11   12 2
    15   11   26 1
    16   13   14 1
    17   14   18 2
    18   14   19 1
    19   15   16 1
    20   15   19 2
    21   15   21 1
    22   16   17 2
    23   16   20 1
    24   17   18 1
    25   21   23 1
    26   22   23 1
    27   23   24 2
    28   23   25 2
    29   26   27 2
    30   26   28 1
    31   27   31 1
    32   28   29 2
    33   29   30 1
    34   30   31 2
    35    1   32 1
    36    3   33 1
    37    8   34 1
    38    9   35 1
    39   10   36 1
    40   12   37 1
    41   13   38 1
    42   17   39 1
    43   18   40 1
    44   19   41 1
    45   20   42 1
    46   20   43 1
    47   20   44 1
    48   21   45 1
    49   22   46 1
    50   22   47 1
    51   22   48 1
    52   27   49 1
    53   28   50 1
    54   29   51 1
    55   30   52 1
    56   31   53 1
@<TRIPOS>PROPERTY_DATA
  Total_Score	| 7.4275
  Crash		| -1.4011
  Polar		| 1.5676
  FragIndex	| 1
  FragRMSD	| 0.491

