@<TRIPOS>MOLECULE
BindingDB_26489
 44 46 0 0 0
SMALL
NO_CHARGES


@<TRIPOS>ATOM
1    C        33.1914   45.5470   -1.2545  C     
2    C        34.8607   43.8535   -1.2002  C     
3    C        35.4193   44.3811   -2.3828  C     
4    C        34.8136   45.5048   -2.9953  C     
5    N        33.7555   44.4601   -0.6751  N     
6    N        33.7089   46.0478   -2.4051  N     
7    C        35.3193   46.0615   -4.1989  C     
8    C        34.5430   46.0789   -5.3798  C     
9    C        36.6240   46.6103   -4.2421  C     
10   C        37.1380   47.1574   -5.4331  C     
11   C        36.3578   47.1618   -6.6003  C     
12   C        35.0629   46.6164   -6.5750  C     
13   N        35.4068   42.7268   -0.6772  N     
14   C        34.9660   41.9977    0.3867  C     
15   C        34.0166   41.7802    2.6467  C     
16   C        33.9762   40.3730    2.4777  C     
17   C        34.5085   39.7823    1.3133  C     
18   C        34.9969   40.5895    0.2756  C     
19   C        34.5231   42.5770    1.5971  C     
20   N        33.5198   42.2816    3.8188  N     
21   C        32.8355   45.1882    3.7867  C     
22   S        33.7862   43.8160    4.4789  S     
23   O        33.2928   43.6788    5.9825  O     
24   O        35.3297   44.1563    4.6595  O     
25   O        33.4663   39.5504    3.4509  O     
26   C        32.2094   38.9653    3.0700  C     
27   H        32.3688   45.9806   -0.8339  H     
28   H        36.2239   43.9226   -2.8189  H     
29   H        33.6011   45.6807   -5.3888  H     
30   H        37.2057   46.6312   -3.4041  H     
31   H        38.0813   47.5546   -5.4489  H     
32   H        36.7309   47.5582   -7.4658  H     
33   H        34.4991   46.6111   -7.4287  H     
34   H        36.1447   42.3548   -1.1843  H     
35   H        34.5210   38.7668    1.2182  H     
36   H        35.3301   40.1475   -0.5853  H     
37   H        34.5613   43.5917    1.7004  H     
38   H        32.9362   41.6885    4.3273  H     
39   H        33.2447   45.4760    2.8153  H     
40   H        32.8901   46.0421    4.4694  H     
41   H        31.7925   44.8812    3.6710  H     
42   H        31.4630   39.7453    2.8539  H     
43   H        31.8492   38.3517    3.8984  H     
44   H        32.3198   38.3199    2.1936  H     
@<TRIPOS>BOND
     1    1    5 2
     2    1    6 1
     3    2    3 2
     4    2    5 1
     5    2   13 1
     6    3    4 1
     7    4    6 2
     8    4    7 1
     9    7    8 2
    10    7    9 1
    11    8   12 1
    12    9   10 2
    13   10   11 1
    14   11   12 2
    15   13   14 1
    16   14   18 2
    17   14   19 1
    18   15   16 1
    19   15   19 2
    20   15   20 1
    21   16   17 2
    22   16   25 1
    23   17   18 1
    24   20   22 1
    25   21   22 1
    26   22   23 2
    27   22   24 2
    28   25   26 1
    29    1   27 1
    30    3   28 1
    31    8   29 1
    32    9   30 1
    33   10   31 1
    34   11   32 1
    35   12   33 1
    36   13   34 1
    37   17   35 1
    38   18   36 1
    39   19   37 1
    40   20   38 1
    41   21   39 1
    42   21   40 1
    43   21   41 1
    44   26   42 1
    45   26   43 1
    46   26   44 1
@<TRIPOS>PROPERTY_DATA
  Total_Score	| 6.8045
  Crash		| -1.4560
  Polar		| 1.4485
  FragIndex	| 1
  FragRMSD	| 0.555

