@<TRIPOS>MOLECULE
BindingDB_26490
 50 53 0 0 0
SMALL
NO_CHARGES


@<TRIPOS>ATOM
1    C        32.7708   44.5186   -2.3530  C     
2    C        34.8805   43.8596   -1.4823  C     
3    C        35.5202   44.6470   -2.4698  C     
4    C        34.7287   45.3831   -3.3894  C     
5    N        33.5173   43.8163   -1.4668  N     
6    N        33.3728   45.2818   -3.2947  N     
7    C        35.2936   46.1931   -4.4120  C     
8    C        34.7045   46.2516   -5.7053  C     
9    C        36.4395   47.0021   -4.1806  C     
10   C        36.9962   47.7982   -5.1962  C     
11   C        36.4050   47.8265   -6.4747  C     
12   C        35.2602   47.0429   -6.7315  C     
13   N        35.6261   43.1386   -0.6117  N     
14   C        35.1070   42.2095    0.2249  C     
15   C        33.9622   41.6849    2.3334  C     
16   C        33.6139   40.4064    1.8080  C     
17   C        34.0918   40.0271    0.5270  C     
18   C        34.8217   40.9220   -0.2670  C     
19   C        34.7438   42.5651    1.5415  C     
20   N        33.5136   42.0528    3.5747  N     
21   C        32.3951   44.7562    3.6618  C     
22   O        33.3911   43.4167    5.8125  O     
23   S        33.6479   43.5984    4.2491  S     
24   O        35.1405   44.1343    4.0957  O     
25   C        32.7340   39.4988    2.4635  C     
26   C        32.1173   37.2084    3.0814  C     
27   C        30.8675   37.6571    3.5504  C     
28   C        30.5433   39.0238    3.4704  C     
29   C        31.4579   39.9359    2.9089  C     
30   C        33.0480   38.1225    2.5570  C     
31   H        31.7542   44.4601   -2.3283  H     
32   H        36.5423   44.6636   -2.5312  H     
33   H        33.8680   45.7062   -5.9180  H     
34   H        36.8808   47.0152   -3.2604  H     
35   H        37.8214   48.3678   -5.0038  H     
36   H        36.7979   48.4032   -7.2081  H     
37   H        34.8144   47.0806   -7.6489  H     
38   H        36.6022   43.2121   -0.6775  H     
39   H        33.8444   39.1270    0.1163  H     
40   H        35.0908   40.6704   -1.2197  H     
41   H        34.9945   43.4868    1.8880  H     
42   H        32.8599   41.4839    4.0031  H     
43   H        32.3876   44.7869    2.5752  H     
44   H        32.6146   45.7525    4.0572  H     
45   H        31.4061   44.4245    4.0085  H     
46   H        32.3460   36.2179    3.1079  H     
47   H        30.2051   36.9862    3.9492  H     
48   H        29.6284   39.3438    3.7860  H     
49   H        31.1717   40.9061    2.7919  H     
50   H        33.9461   37.7762    2.2252  H     
@<TRIPOS>BOND
     1    1    5 2
     2    1    6 1
     3    2    3 2
     4    2    5 1
     5    2   13 1
     6    3    4 1
     7    4    6 2
     8    4    7 1
     9    7    8 2
    10    7    9 1
    11    8   12 1
    12    9   10 2
    13   10   11 1
    14   11   12 2
    15   13   14 1
    16   14   18 2
    17   14   19 1
    18   15   16 1
    19   15   19 2
    20   15   20 1
    21   16   17 2
    22   16   25 1
    23   17   18 1
    24   20   23 1
    25   21   23 1
    26   22   23 2
    27   23   24 2
    28   25   29 2
    29   25   30 1
    30   26   27 1
    31   26   30 2
    32   27   28 2
    33   28   29 1
    34    1   31 1
    35    3   32 1
    36    8   33 1
    37    9   34 1
    38   10   35 1
    39   11   36 1
    40   12   37 1
    41   13   38 1
    42   17   39 1
    43   18   40 1
    44   19   41 1
    45   20   42 1
    46   21   43 1
    47   21   44 1
    48   21   45 1
    49   26   46 1
    50   27   47 1
    51   28   48 1
    52   29   49 1
    53   30   50 1
@<TRIPOS>PROPERTY_DATA
  Total_Score	| 4.6711
  Crash		| -3.4716
  Polar		| 1.5750
  FragIndex	| 1
  FragRMSD	| 0.919

