@<TRIPOS>MOLECULE
BindingDB_26501
 49 52 0 0 0
SMALL
NO_CHARGES


@<TRIPOS>ATOM
1    C        33.1170   45.4817   -1.3917  C     
2    C        34.8018   43.8024   -1.3635  C     
3    C        35.3432   44.3367   -2.5509  C     
4    C        34.7365   45.4780   -3.1493  C     
5    N        33.6905   44.3888   -0.8349  N     
6    N        33.6412   46.0013   -2.5261  N     
7    C        35.1829   46.0721   -4.3746  C     
8    C        34.3033   46.8637   -5.1523  C     
9    C        36.5134   45.9161   -4.8430  C     
10   C        34.7222   47.4622   -6.3518  C     
11   N        35.3632   42.6833   -0.8379  N     
12   C        34.9575   41.9594    0.2459  C     
13   C        34.0787   41.7455    2.5420  C     
14   C        34.0484   40.3254    2.3888  C     
15   C        34.4864   39.7462    1.1756  C     
16   C        34.9311   40.5612    0.1204  C     
17   C        34.5731   42.5329    1.4766  C     
18   C        33.5455   39.4280    3.4655  C     
19   N        33.6265   42.3018    3.7128  N     
20   C        32.9595   45.1962    3.5637  C     
21   S        33.9028   43.8511    4.3186  S     
22   O        33.2795   43.8197    5.7859  O     
23   O        35.4479   44.1969    4.5109  O     
24   C        36.0354   47.2869   -6.8084  C     
25   C        36.9336   46.5023   -6.0496  C     
26   C        38.5267   46.5794   -7.8339  C     
27   C        37.8035   47.8629   -8.3156  C     
28   O        36.3892   47.8149   -8.0271  O     
29   O        38.2444   46.3464   -6.4369  O     
30   H        32.2800   45.8950   -0.9787  H     
31   H        36.1330   43.8670   -3.0076  H     
32   H        33.3327   47.0073   -4.8578  H     
33   H        37.1941   45.3832   -4.3018  H     
34   H        34.0606   48.0147   -6.9018  H     
35   H        36.1170   42.3309   -1.3340  H     
36   H        34.4948   38.7319    1.0479  H     
37   H        35.2309   40.1198   -0.7490  H     
38   H        34.6650   43.5355    1.5926  H     
39   H        34.1433   39.5533    4.3679  H     
40   H        33.6050   38.3773    3.1904  H     
41   H        32.5039   39.6661    3.6914  H     
42   H        32.9742   41.7809    4.2183  H     
43   H        33.5491   45.6304    2.7499  H     
44   H        32.7756   45.9726    4.3061  H     
45   H        32.0140   44.7999    3.1747  H     
46   H        38.2012   45.7162   -8.4211  H     
47   H        39.6038   46.6927   -7.9666  H     
48   H        38.2462   48.7316   -7.8123  H     
49   H        37.9316   47.9857   -9.3956  H     
@<TRIPOS>BOND
     1    1    5 2
     2    1    6 1
     3    2    3 2
     4    2    5 1
     5    2   11 1
     6    3    4 1
     7    4    6 2
     8    4    7 1
     9    7    8 2
    10    7    9 1
    11    8   10 1
    12    9   25 2
    13   10   24 2
    14   11   12 1
    15   12   16 2
    16   12   17 1
    17   13   14 1
    18   13   17 2
    19   13   19 1
    20   14   15 2
    21   14   18 1
    22   15   16 1
    23   19   21 1
    24   20   21 1
    25   21   22 2
    26   21   23 2
    27   24   25 1
    28   24   28 1
    29   25   29 1
    30   26   27 1
    31   26   29 1
    32   27   28 1
    33    1   30 1
    34    3   31 1
    35    8   32 1
    36    9   33 1
    37   10   34 1
    38   11   35 1
    39   15   36 1
    40   16   37 1
    41   17   38 1
    42   18   39 1
    43   18   40 1
    44   18   41 1
    45   19   42 1
    46   20   43 1
    47   20   44 1
    48   20   45 1
    49   26   46 1
    50   26   47 1
    51   27   48 1
    52   27   49 1
@<TRIPOS>PROPERTY_DATA
  Total_Score	| 7.6975
  Crash		| -1.3230
  Polar		| 1.7836
  FragIndex	| 1
  FragRMSD	| 0.505

