@<TRIPOS>MOLECULE
BindingDB_26495
 46 48 0 0 0
SMALL
NO_CHARGES


@<TRIPOS>ATOM
1    C        33.0530   45.4315   -1.3524  C     
2    C        34.8040   43.8293   -1.2650  C     
3    C        35.3568   44.3505   -2.4405  C     
4    C        34.7274   45.4558   -3.0425  C     
5    N        33.6635   44.3805   -0.7625  N     
6    N        33.5885   45.9606   -2.4841  N     
7    C        35.2646   46.0585   -4.2045  C     
8    C        34.5063   46.1320   -5.3956  C     
9    C        36.5648   46.6170   -4.1914  C     
10   C        37.0992   47.2265   -5.3428  C     
11   C        36.3386   47.2789   -6.5223  C     
12   C        35.0447   46.7281   -6.5504  C     
13   N        35.4237   42.7623   -0.7082  N     
14   C        34.9781   42.1195    0.3957  C     
15   C        33.8323   42.0939    2.5820  C     
16   C        33.8811   40.6655    2.5739  C     
17   C        34.5481   40.0050    1.5174  C     
18   C        35.0735   40.7078    0.4209  C     
19   C        34.4340   42.8018    1.5123  C     
20   C        33.1973   39.8179    3.5944  C     
21   N        33.2403   42.8336    3.5925  N     
22   C        32.7165   45.7722    3.3194  C     
23   S        32.1305   44.0711    3.2468  S     
24   O        31.3746   43.8272    1.8672  O     
25   O        31.0188   43.9674    4.3833  O     
26   C        33.8739   42.8893    4.8869  C     
27   H        32.1963   45.8223   -0.9504  H     
28   H        36.1890   43.9172   -2.8556  H     
29   H        33.5648   45.7269   -5.4399  H     
30   H        37.1311   46.5963   -3.3372  H     
31   H        38.0419   47.6229   -5.3159  H     
32   H        36.7279   47.7124   -7.3560  H     
33   H        34.4956   46.7578   -7.4125  H     
34   H        36.1737   42.3803   -1.1985  H     
35   H        34.6136   38.9831    1.5117  H     
36   H        35.5045   40.1924   -0.3409  H     
37   H        34.4584   43.8312    1.5418  H     
38   H        33.5379   40.0792    4.6094  H     
39   H        33.4150   38.7599    3.4568  H     
40   H        32.0996   39.9493    3.5402  H     
41   H        33.0938   45.9665    4.3257  H     
42   H        31.8857   46.4541    3.1288  H     
43   H        33.5074   45.9552    2.5844  H     
44   H        33.9559   41.8838    5.3319  H     
45   H        33.3197   43.5159    5.6077  H     
46   H        34.8832   43.3212    4.7676  H     
@<TRIPOS>BOND
     1    1    5 2
     2    1    6 1
     3    2    3 2
     4    2    5 1
     5    2   13 1
     6    3    4 1
     7    4    6 2
     8    4    7 1
     9    7    8 2
    10    7    9 1
    11    8   12 1
    12    9   10 2
    13   10   11 1
    14   11   12 2
    15   13   14 1
    16   14   18 2
    17   14   19 1
    18   15   16 1
    19   15   19 2
    20   15   21 1
    21   16   17 2
    22   16   20 1
    23   17   18 1
    24   21   23 1
    25   21   26 1
    26   22   23 1
    27   23   24 2
    28   23   25 2
    29    1   27 1
    30    3   28 1
    31    8   29 1
    32    9   30 1
    33   10   31 1
    34   11   32 1
    35   12   33 1
    36   13   34 1
    37   17   35 1
    38   18   36 1
    39   19   37 1
    40   20   38 1
    41   20   39 1
    42   20   40 1
    43   22   41 1
    44   22   42 1
    45   22   43 1
    46   26   44 1
    47   26   45 1
    48   26   46 1
@<TRIPOS>PROPERTY_DATA
  Total_Score	| 4.8903
  Crash		| -2.7240
  Polar		| 0.8181
  FragIndex	| 1
  FragRMSD	| 1.240

