@<TRIPOS>MOLECULE
BindingDB_26491
 47 49 0 0 0
SMALL
NO_CHARGES


@<TRIPOS>ATOM
1    C        33.1190   45.3792   -1.3813  C     
2    C        34.7613   43.6522   -1.3526  C     
3    C        35.3280   44.1912   -2.5253  C     
4    C        34.7601   45.3535   -3.0983  C     
5    N        33.6642   44.2631   -0.8285  N     
6    N        33.6692   45.9082   -2.5000  N     
7    C        35.3131   45.9591   -4.2529  C     
8    C        36.6950   46.2522   -4.3162  C     
9    C        34.5005   46.2879   -5.3664  C     
10   C        35.0609   46.8738   -6.5157  C     
11   C        36.4378   47.1633   -6.5594  C     
12   C        37.2551   46.8547   -5.4606  C     
13   N        35.3108   42.5243   -0.8359  N     
14   C        34.9022   41.8315    0.2699  C     
15   C        34.0485   41.7397    2.5901  C     
16   C        33.9830   40.3209    2.5040  C     
17   C        34.4241   39.6820    1.3115  C     
18   C        34.8774   40.4282    0.2123  C     
19   C        34.5623   42.4676    1.4884  C     
20   N        33.5514   42.3623    3.7015  N     
21   O        35.1361   44.3728    4.6290  O     
22   C        32.5624   44.1525    5.6047  C     
23   S        33.6606   43.9713    4.1841  S     
24   O        33.0559   44.9955    3.1173  O     
25   C        33.4962   39.4330    3.6072  C     
26   C        32.1366   38.9761    3.3556  C     
27   C        31.8440   37.8061    2.7687  C     
28   H        32.3052   45.8166   -0.9494  H     
29   H        36.1328   43.7365   -2.9648  H     
30   H        37.3022   46.0508   -3.5209  H     
31   H        33.4982   46.0793   -5.3556  H     
32   H        34.4707   47.0896   -7.3252  H     
33   H        36.8447   47.5967   -7.3950  H     
34   H        38.2553   47.0692   -5.4883  H     
35   H        36.0561   42.1511   -1.3373  H     
36   H        34.4133   38.6595    1.2377  H     
37   H        35.1548   39.9377   -0.6485  H     
38   H        34.6611   43.4748    1.5412  H     
39   H        32.9896   41.8199    4.2721  H     
40   H        31.5403   43.9104    5.3064  H     
41   H        32.5995   45.1814    5.9677  H     
42   H        32.8791   43.4715    6.4053  H     
43   H        34.1845   38.5848    3.7152  H     
44   H        33.5184   39.9302    4.5827  H     
45   H        31.3832   39.5800    3.6166  H     
46   H        30.8935   37.5503    2.6164  H     
47   H        32.5714   37.1948    2.4588  H     
@<TRIPOS>BOND
     1    1    5 2
     2    1    6 1
     3    2    3 2
     4    2    5 1
     5    2   13 1
     6    3    4 1
     7    4    6 2
     8    4    7 1
     9    7    8 2
    10    7    9 1
    11    8   12 1
    12    9   10 2
    13   10   11 1
    14   11   12 2
    15   13   14 1
    16   14   18 2
    17   14   19 1
    18   15   16 1
    19   15   19 2
    20   15   20 1
    21   16   17 2
    22   16   25 1
    23   17   18 1
    24   20   23 1
    25   21   23 2
    26   22   23 1
    27   23   24 2
    28   25   26 1
    29   26   27 2
    30    1   28 1
    31    3   29 1
    32    8   30 1
    33    9   31 1
    34   10   32 1
    35   11   33 1
    36   12   34 1
    37   13   35 1
    38   17   36 1
    39   18   37 1
    40   19   38 1
    41   20   39 1
    42   22   40 1
    43   22   41 1
    44   22   42 1
    45   25   43 1
    46   25   44 1
    47   26   45 1
    48   27   46 1
    49   27   47 1
@<TRIPOS>PROPERTY_DATA
  Total_Score	| 7.6020
  Crash		| -1.5456
  Polar		| 1.3457
  FragIndex	| 1
  FragRMSD	| 0.851

