@<TRIPOS>MOLECULE
BindingDB_26500
 53 55 0 0 0
SMALL
NO_CHARGES


@<TRIPOS>ATOM
1    C        33.1497   45.4854   -0.9965  C     
2    C        34.8612   43.8319   -1.1807  C     
3    C        35.3351   44.4744   -2.3444  C     
4    C        34.6820   45.6395   -2.7962  C     
5    N        33.7710   44.3622   -0.5580  N     
6    N        33.6059   46.1089   -2.1092  N     
7    C        35.0919   46.2958   -3.9647  C     
8    C        34.5832   45.8937   -5.2152  C     
9    C        36.0354   47.3437   -3.9128  C     
10   C        36.4696   47.9725   -5.0964  C     
11   C        35.9811   47.5655   -6.3517  C     
12   C        35.0094   46.5325   -6.3917  C     
13   N        35.4636   42.6990   -0.7433  N     
14   C        35.0737   41.9225    0.3205  C     
15   C        34.0760   41.6808    2.5632  C     
16   C        33.9893   40.2719    2.3693  C     
17   C        34.5064   39.7097    1.1788  C     
18   C        35.0295   40.5264    0.1555  C     
19   C        34.6808   42.4757    1.5532  C     
20   C        33.3573   39.3765    3.3745  C     
21   N        33.5423   42.2461    3.6947  N     
22   C        32.3420   44.2858    5.3572  C     
23   S        33.6455   43.8552    4.1945  S     
24   O        35.0350   44.0805    4.9487  O     
25   O        33.5101   44.8488    2.9540  O     
26   C        36.4705   48.2013   -7.6120  C     
27   C        37.9895   48.0016   -7.8486  C     
28   C        38.5530   46.6137   -7.4408  C     
29   O        38.0746   46.2366   -6.1445  O     
30   H        32.3397   45.8517   -0.4924  H     
31   H        36.1378   44.0954   -2.8633  H     
32   H        33.9060   45.1282   -5.2741  H     
33   H        36.4353   47.6387   -3.0158  H     
34   H        37.1564   48.7247   -5.0282  H     
35   H        34.6503   46.1971   -7.2825  H     
36   H        36.1842   42.3617   -1.2974  H     
37   H        34.4710   38.6988    1.0145  H     
38   H        35.3275   40.1007   -0.7208  H     
39   H        34.8062   43.4877    1.7143  H     
40   H        33.8623   39.4763    4.3388  H     
41   H        33.4057   38.3243    3.0778  H     
42   H        32.3048   39.6452    3.4983  H     
43   H        32.9548   41.6877    4.2334  H     
44   H        31.3716   44.2348    4.8594  H     
45   H        32.5056   45.2997    5.7289  H     
46   H        32.3660   43.5852    6.1940  H     
47   H        35.9318   47.8080   -8.4838  H     
48   H        36.2631   49.2754   -7.5744  H     
49   H        38.1877   48.1521   -8.9176  H     
50   H        38.5403   48.7812   -7.3148  H     
51   H        38.2275   45.8661   -8.1695  H     
52   H        39.6509   46.6543   -7.4524  H     
53   H        38.8675   46.2794   -5.5385  H     
@<TRIPOS>BOND
     1    1    5 2
     2    1    6 1
     3    2    3 2
     4    2    5 1
     5    2   13 1
     6    3    4 1
     7    4    6 2
     8    4    7 1
     9    7    8 2
    10    7    9 1
    11    8   12 1
    12    9   10 2
    13   10   11 1
    14   11   12 2
    15   11   26 1
    16   13   14 1
    17   14   18 2
    18   14   19 1
    19   15   16 1
    20   15   19 2
    21   15   21 1
    22   16   17 2
    23   16   20 1
    24   17   18 1
    25   21   23 1
    26   22   23 1
    27   23   24 2
    28   23   25 2
    29   26   27 1
    30   27   28 1
    31   28   29 1
    32    1   30 1
    33    3   31 1
    34    8   32 1
    35    9   33 1
    36   10   34 1
    37   12   35 1
    38   13   36 1
    39   17   37 1
    40   18   38 1
    41   19   39 1
    42   20   40 1
    43   20   41 1
    44   20   42 1
    45   21   43 1
    46   22   44 1
    47   22   45 1
    48   22   46 1
    49   26   47 1
    50   26   48 1
    51   27   49 1
    52   27   50 1
    53   28   51 1
    54   28   52 1
    55   29   53 1
@<TRIPOS>PROPERTY_DATA
  Total_Score	| 7.2530
  Crash		| -2.5678
  Polar		| 2.4754
  FragIndex	| 1
  FragRMSD	| 0.959

