@<TRIPOS>MOLECULE
BindingDB_26496
 51 53 0 0 0
SMALL
NO_CHARGES


@<TRIPOS>ATOM
1    C        32.6548   44.7801   -1.9483  C     
2    C        34.5572   43.4108   -1.6020  C     
3    C        35.1980   44.0325   -2.6974  C     
4    C        34.5650   45.1125   -3.3757  C     
5    N        33.2971   43.7996   -1.2649  N     
6    N        33.3003   45.4146   -2.9633  N     
7    C        35.1684   45.8827   -4.4411  C     
8    C        34.4293   46.5665   -5.4708  C     
9    C        36.5833   45.9935   -4.4972  C     
10   C        37.2606   46.6594   -5.5341  C     
11   C        36.5267   47.2951   -6.5449  C     
12   C        35.1248   47.2562   -6.5093  C     
13   N        35.2157   42.4227   -0.9497  N     
14   C        34.8008   41.7468    0.1607  C     
15   C        33.9435   41.6810    2.4782  C     
16   C        33.9472   40.2582    2.4431  C     
17   C        34.4549   39.6089    1.2931  C     
18   C        34.8761   40.3441    0.1686  C     
19   C        34.3724   42.4024    1.3348  C     
20   C        33.4245   39.4392    3.5781  C     
21   N        33.4948   42.2956    3.6113  N     
22   C        32.5992   44.1596    5.5025  C     
23   S        33.7312   43.8825    4.1259  S     
24   O        35.2169   44.1009    4.6569  O     
25   O        33.3351   44.9333    2.9994  O     
26   N        33.0644   46.6732   -5.4636  N     
27   C        32.2886   46.2428   -6.6059  C     
28   C        32.4566   47.5781   -4.5155  C     
29   H        31.7040   45.0525   -1.7068  H     
30   H        36.1111   43.6977   -3.0136  H     
31   H        37.1654   45.5849   -3.7573  H     
32   H        38.2849   46.7074   -5.5439  H     
33   H        37.0120   47.8097   -7.2849  H     
34   H        34.6171   47.7995   -7.2178  H     
35   H        36.0630   42.1485   -1.3420  H     
36   H        34.5129   38.5871    1.2521  H     
37   H        35.2069   39.8490   -0.6579  H     
38   H        34.3818   43.4248    1.3466  H     
39   H        33.9647   39.6610    4.4990  H     
40   H        33.5112   38.3693    3.3910  H     
41   H        32.3693   39.6670    3.7333  H     
42   H        32.9628   41.7567    4.2124  H     
43   H        31.5650   44.0274    5.1774  H     
44   H        32.7260   45.1720    5.8826  H     
45   H        32.8179   43.4459    6.2972  H     
46   H        32.4776   46.8876   -7.4698  H     
47   H        31.2113   46.2649   -6.4013  H     
48   H        32.5494   45.2154   -6.8748  H     
49   H        31.5431   47.1524   -4.0938  H     
50   H        32.1929   48.5199   -5.0138  H     
51   H        33.1218   47.8257   -3.6878  H     
@<TRIPOS>BOND
     1    1    5 2
     2    1    6 1
     3    2    3 2
     4    2    5 1
     5    2   13 1
     6    3    4 1
     7    4    6 2
     8    4    7 1
     9    7    8 2
    10    7    9 1
    11    8   12 1
    12    8   26 1
    13    9   10 2
    14   10   11 1
    15   11   12 2
    16   13   14 1
    17   14   18 2
    18   14   19 1
    19   15   16 1
    20   15   19 2
    21   15   21 1
    22   16   17 2
    23   16   20 1
    24   17   18 1
    25   21   23 1
    26   22   23 1
    27   23   24 2
    28   23   25 2
    29   26   27 1
    30   26   28 1
    31    1   29 1
    32    3   30 1
    33    9   31 1
    34   10   32 1
    35   11   33 1
    36   12   34 1
    37   13   35 1
    38   17   36 1
    39   18   37 1
    40   19   38 1
    41   20   39 1
    42   20   40 1
    43   20   41 1
    44   21   42 1
    45   22   43 1
    46   22   44 1
    47   22   45 1
    48   27   46 1
    49   27   47 1
    50   27   48 1
    51   28   49 1
    52   28   50 1
    53   28   51 1
@<TRIPOS>PROPERTY_DATA
  Total_Score	| 7.4300
  Crash		| -1.5669
  Polar		| 1.5364
  FragIndex	| 1
  FragRMSD	| 0.889

