@<TRIPOS>MOLECULE
BindingDB_50155503
 21 22 0 0 0
SMALL
NO_CHARGES


@<TRIPOS>ATOM
1    C        16.4351    2.4819   15.8836  C     
2    S        15.6162    1.2638   16.7521  S     
3    N        17.7480    2.5253   15.8128  N     
4    S        15.5841    3.7584   15.1228  S     
5    N        18.9788    7.1111   12.9817  N     
6    C        17.1305    4.3978   14.6973  C     
7    C        18.1798    3.6043   15.1501  C     
8    C        18.7132    5.9757   13.6902  C     
9    C        17.3789    5.5769   13.9738  C     
10   O        15.5890   -0.0560   15.8731  O     
11   O        16.3155    0.9600   18.1498  O     
12   O        20.1960    7.4986   12.7104  O     
13   O        18.1112    7.8283   12.5568  O     
14   N        14.0041    1.6272   17.0309  N     
15   C        19.5107    3.9733   14.8984  C     
16   C        19.7684    5.1512   14.1679  C     
17   H        16.5841    6.1349   13.6550  H     
18   H        13.3362    0.9187   17.0219  H     
19   H        13.7266    2.5525   17.1280  H     
20   H        20.2828    3.3990   15.2414  H     
21   H        20.7429    5.3996   13.9858  H     
@<TRIPOS>BOND
     1    1    2 1
     2    1    3 2
     3    1    4 1
     4    2   10 2
     5    2   11 2
     6    2   14 am
     7    3    7 1
     8    4    6 1
     9    5    8 am
    10    5   12 1
    11    5   13 2
    12    6    7 1
    13    6    9 2
    14    7   15 2
    15    8    9 1
    16    8   16 2
    17   15   16 1
    18    9   17 1
    19   14   18 1
    20   14   19 1
    21   15   20 1
    22   16   21 1
@<TRIPOS>PROPERTY_DATA
  Total_Score	| 4.8363
  Crash		| -0.2235
  Polar		| 3.5221
  FragIndex	| 1
  FragRMSD	| 1.057

