@<TRIPOS>MOLECULE
BindingDB_50160671
 19 20 0 0 0
SMALL
NO_CHARGES


@<TRIPOS>ATOM
1    C        16.4419    2.4884   15.9497  C     
2    S        15.6415    1.2243   16.7572  S     
3    N        17.7541    2.5301   15.8360  N     
4    S        15.5678    3.7658   15.2122  S     
5    C        18.1649    3.6201   15.1792  C     
6    C        17.0991    4.4123   14.7523  C     
7    O        15.6061   -0.0486   15.8116  O     
8    O        16.3981    0.8722   18.1065  O     
9    N        14.0565    1.6223   17.1286  N     
10   C        19.4930    3.9854   14.8920  C     
11   C        17.3208    5.5922   14.0253  C     
12   C        18.6489    5.9691   13.7309  C     
13   C        19.7299    5.1708   14.1607  C     
14   H        13.4979    1.0052   17.6184  H     
15   H        13.7139    2.5011   16.8897  H     
16   H        20.2741    3.4119   15.2042  H     
17   H        16.5415    6.1666   13.7138  H     
18   H        18.8286    6.8295   13.1989  H     
19   H        20.6902    5.4522   13.9398  H     
@<TRIPOS>BOND
     1    1    2 1
     2    1    3 2
     3    1    4 1
     4    2    7 2
     5    2    8 2
     6    2    9 am
     7    3    5 1
     8    4    6 1
     9    5    6 1
    10    5   10 2
    11    6   11 2
    12   10   13 1
    13   11   12 1
    14   12   13 2
    15    9   14 1
    16    9   15 1
    17   10   16 1
    18   11   17 1
    19   12   18 1
    20   13   19 1
@<TRIPOS>PROPERTY_DATA
  Total_Score	| 4.7036
  Crash		| -0.3868
  Polar		| 3.4209
  FragIndex	| 1
  FragRMSD	| 1.060

