@<TRIPOS>MOLECULE
BindingDB_10882
 26 27 0 0 0
SMALL
NO_CHARGES


@<TRIPOS>ATOM
1    C        19.5704    3.9843   14.8194  C     
2    C        19.8566    5.2053   14.1612  C     
3    C        18.8141    6.0952   13.8067  C     
4    C        17.4666    5.7452   14.0833  C     
5    O        19.0385    7.3305   13.2708  O     
6    C        19.7545    8.3110   14.0708  C     
7    C        19.6110    8.1834   15.6067  C     
8    C        18.2351    3.6547   15.1157  C     
9    C        17.2100    4.5341   14.7332  C     
10   C        16.4773    2.4578   15.9463  C     
11   S        15.7281    3.8460   15.2511  S     
12   N        17.8159    2.5425   15.7702  N     
13   N        14.0035    1.5743   17.0394  N     
14   O        15.6233   -0.0723   15.8389  O     
15   S        15.6211    1.2029   16.7815  S     
16   O        16.3266    0.8484   18.1586  O     
17   H        20.3377    3.3635   15.0855  H     
18   H        20.8248    5.4485   13.9573  H     
19   H        16.7036    6.3753   13.8358  H     
20   H        20.8193    8.3020   13.8021  H     
21   H        19.3671    9.2854   13.7720  H     
22   H        18.5742    7.9555   15.8517  H     
23   H        19.9168    9.1117   16.0870  H     
24   H        20.2490    7.3871   15.9838  H     
25   H        13.3572    0.8638   17.1722  H     
26   H        13.7200    2.4998   17.0760  H     
@<TRIPOS>BOND
     1    1    2 2
     2    1    8 1
     3    2    3 1
     4    3    4 2
     5    3    5 1
     6    4    9 1
     7    5    6 1
     8    6    7 1
     9    8    9 2
    10    8   12 1
    11    9   11 1
    12   10   11 1
    13   10   12 2
    14   10   15 1
    15   13   15 am
    16   14   15 2
    17   15   16 2
    18    1   17 1
    19    2   18 1
    20    4   19 1
    21    6   20 1
    22    6   21 1
    23    7   22 1
    24    7   23 1
    25    7   24 1
    26   13   25 1
    27   13   26 1
@<TRIPOS>PROPERTY_DATA
  Total_Score	| 5.9895
  Crash		| -0.5507
  Polar		| 3.5444
  FragIndex	| 1
  FragRMSD	| 1.058

