@<TRIPOS>MOLECULE
BindingDB_10874
 20 21 0 0 0
SMALL
NO_CHARGES


@<TRIPOS>ATOM
1    C        19.4835    4.0500   14.8506  C     
2    C        19.7773    5.2494   14.1690  C     
3    C        18.7342    6.1057   13.7401  C     
4    C        17.3886    5.7732   14.0030  C     
5    C        18.1411    3.7088   15.0985  C     
6    C        17.1127    4.5715   14.6805  C     
7    C        16.3979    2.4754   15.8894  C     
8    O        19.0383    7.2217   13.0446  O     
9    S        15.6401    3.8473   15.1794  S     
10   N        17.7358    2.5849   15.7436  N     
11   N        14.0513    1.6339   17.1665  N     
12   O        15.6054   -0.1523   15.9227  O     
13   S        15.6239    1.1988   16.7625  S     
14   O        16.4098    0.9911   18.1308  O     
15   H        20.2377    3.4421   15.1746  H     
16   H        20.7509    5.5000   13.9872  H     
17   H        16.6286    6.3853   13.6933  H     
18   H        18.7233    7.9583   13.6058  H     
19   H        13.5417    1.0347   17.7324  H     
20   H        13.8293    2.5768   17.1745  H     
@<TRIPOS>BOND
     1    1    2 2
     2    1    5 1
     3    2    3 1
     4    3    4 2
     5    3    8 1
     6    4    6 1
     7    5    6 2
     8    5   10 1
     9    6    9 1
    10    7    9 1
    11    7   10 2
    12    7   13 1
    13   11   13 am
    14   12   13 2
    15   13   14 2
    16    1   15 1
    17    2   16 1
    18    4   17 1
    19    8   18 1
    20   11   19 1
    21   11   20 1
@<TRIPOS>PROPERTY_DATA
  Total_Score	| 4.6889
  Crash		| -0.3617
  Polar		| 3.5110
  FragIndex	| 1
  FragRMSD	| 1.068

