@<TRIPOS>MOLECULE
BindingDB_8098
 96 99 0 0 0
SMALL
NO_CHARGES


@<TRIPOS>ATOM
1    C        31.6411   -8.6773    6.1257  C     
2    O        31.0007   -8.0155    6.9272  O     
3    C        30.4368  -10.8004    6.6034  C     
4    N        31.3789   -9.9645    5.9156  N     
5    C        29.1461  -10.7494    5.8998  C     
6    C        30.4841  -10.5811    8.1751  C     
7    C        29.5951  -11.5078    9.0650  C     
8    C        31.9583  -10.6479    8.7090  C     
9    O        29.0013  -11.4832    4.9233  O     
10   N        28.1708   -9.8917    6.1788  N     
11   C        26.8698   -9.8182    5.5485  C     
12   C        26.8429   -8.9618    4.2319  C     
13   C        25.8392   -9.3278    6.6129  C     
14   C        26.9748   -9.8074    2.9170  C     
15   C        24.9380   -9.0756    1.4908  C     
16   O        27.8531   -7.9534    4.2732  O     
17   N        26.4243   -9.2015    1.6717  N     
18   C        24.1921  -10.3330    1.5821  C     
19   O        24.7438  -11.4038    1.3951  O     
20   N        22.8889  -10.3533    1.7646  N     
21   C        24.6053   -8.2627    0.1881  C     
22   C        25.6981  -10.3021    7.7258  C     
23   C        24.6054  -11.2006    7.7441  C     
24   C        26.6642  -10.3821    8.7620  C     
25   C        26.5096  -11.3232    9.7961  C     
26   C        25.4134  -12.2086    9.8086  C     
27   C        24.4702  -12.1547    8.7680  C     
28   C        24.1075   -9.0360   -0.9914  C     
29   C        24.9995   -9.6447   -1.9068  C     
30   C        22.7169   -9.2248   -1.1890  C     
31   C        22.2375  -10.0104   -2.2403  C     
32   C        23.1276  -10.6402   -3.1428  C     
33   C        24.5186  -10.4429   -2.9588  C     
34   C        22.6084  -11.5135   -4.1330  C     
35   C        21.8000  -11.0211   -5.1894  C     
36   C        22.7503  -12.9138   -3.9946  C     
37   C        22.0368  -13.7966   -4.8277  C     
38   C        21.2315  -13.2895   -5.8619  C     
39   C        21.1285  -11.9018   -6.0550  C     
40   C        32.7613   -8.1196    5.5244  C     
41   C        33.9057   -7.7385    6.2678  C     
42   C        35.0306   -7.1764    5.6116  C     
43   C        34.9912   -6.9643    4.2126  C     
44   C        33.8697   -7.3780    3.4671  C     
45   C        32.7763   -7.9651    4.1199  C     
46   O        33.8986   -7.9049    7.6336  O     
47   C        34.9387   -8.7414    8.1753  C     
48   O        36.1118   -6.8018    6.3666  O     
49   C        37.4008   -7.0978    5.7821  C     
50   H        30.8277  -11.8168    6.4561  H     
51   H        31.9804  -10.4165    5.3016  H     
52   H        30.1633   -9.5692    8.3813  H     
53   H        28.6469  -11.7746    8.5878  H     
54   H        29.3514  -10.9967   10.0017  H     
55   H        30.1189  -12.4388    9.3289  H     
56   H        32.3508  -11.6708    8.6486  H     
57   H        31.9975  -10.3164    9.7527  H     
58   H        32.6060   -9.9983    8.1184  H     
59   H        28.3418   -9.2519    6.8914  H     
60   H        26.5417  -10.8204    5.2556  H     
61   H        25.8888   -8.4338    4.2011  H     
62   H        26.1489   -8.3458    6.9790  H     
63   H        24.8519   -9.1905    6.1559  H     
64   H        28.0382   -9.9898    2.7360  H     
65   H        26.5134  -10.7895    3.0329  H     
66   H        24.5954   -8.4471    2.3146  H     
67   H        27.6173   -7.2991    3.5850  H     
68   H        26.8264   -8.2625    1.5967  H     
69   H        26.7820   -9.7477    0.8845  H     
70   H        22.4210  -11.2026    1.7958  H     
71   H        22.3925   -9.5286    1.8653  H     
72   H        23.8599   -7.5016    0.4542  H     
73   H        25.4865   -7.6958   -0.1325  H     
74   H        23.9038  -11.1777    6.9932  H     
75   H        27.4887   -9.7774    8.7494  H     
76   H        27.2102  -11.3827   10.5342  H     
77   H        25.3057  -12.8965   10.5590  H     
78   H        23.6915  -12.8115    8.7511  H     
79   H        26.0117   -9.5321   -1.7854  H     
80   H        22.0442   -8.7958   -0.5472  H     
81   H        21.2237  -10.1425   -2.3292  H     
82   H        25.1899  -10.8974   -3.5831  H     
83   H        21.6702  -10.0172   -5.3193  H     
84   H        23.3215  -13.3045   -3.2416  H     
85   H        22.0959  -14.8079   -4.6764  H     
86   H        20.7186  -13.9267   -6.4742  H     
87   H        20.5487  -11.5310   -6.8111  H     
88   H        35.7731   -6.5190    3.7342  H     
89   H        33.8529   -7.2434    2.4547  H     
90   H        31.9710   -8.2469    3.5611  H     
91   H        35.1565   -9.6121    7.5431  H     
92   H        34.6045   -9.0991    9.1505  H     
93   H        35.8573   -8.1697    8.3249  H     
94   H        37.4544   -8.1306    5.4092  H     
95   H        38.1641   -6.9690    6.5502  H     
96   H        37.6172   -6.4013    4.9669  H     
@<TRIPOS>BOND
     1    1    2 2
     2    1    4 am
     3    1   40 1
     4    3    4 1
     5    3    5 1
     6    3    6 1
     7    5    9 2
     8    5   10 am
     9    6    7 1
    10    6    8 1
    11   10   11 1
    12   11   12 1
    13   11   13 1
    14   12   14 1
    15   12   16 1
    16   13   22 1
    17   14   17 1
    18   15   17 1
    19   15   18 1
    20   15   21 1
    21   18   19 2
    22   18   20 am
    23   21   28 1
    24   22   23 2
    25   22   24 1
    26   23   27 1
    27   24   25 2
    28   25   26 1
    29   26   27 2
    30   28   29 2
    31   28   30 1
    32   29   33 1
    33   30   31 2
    34   31   32 1
    35   32   33 2
    36   32   34 1
    37   34   35 2
    38   34   36 1
    39   35   39 1
    40   36   37 2
    41   37   38 1
    42   38   39 2
    43   40   41 2
    44   40   45 1
    45   41   42 1
    46   41   46 1
    47   42   43 2
    48   42   48 1
    49   43   44 1
    50   44   45 2
    51   46   47 1
    52   48   49 1
    53    3   50 1
    54    4   51 1
    55    6   52 1
    56    7   53 1
    57    7   54 1
    58    7   55 1
    59    8   56 1
    60    8   57 1
    61    8   58 1
    62   10   59 1
    63   11   60 1
    64   12   61 1
    65   13   62 1
    66   13   63 1
    67   14   64 1
    68   14   65 1
    69   15   66 1
    70   16   67 1
    71   17   68 1
    72   17   69 1
    73   20   70 1
    74   20   71 1
    75   21   72 1
    76   21   73 1
    77   23   74 1
    78   24   75 1
    79   25   76 1
    80   26   77 1
    81   27   78 1
    82   29   79 1
    83   30   80 1
    84   31   81 1
    85   33   82 1
    86   35   83 1
    87   36   84 1
    88   37   85 1
    89   38   86 1
    90   39   87 1
    91   43   88 1
    92   44   89 1
    93   45   90 1
    94   47   91 1
    95   47   92 1
    96   47   93 1
    97   49   94 1
    98   49   95 1
    99   49   96 1
@<TRIPOS>PROPERTY_DATA
  Total_Score	| 9.3131
  Crash		| -6.5386
  Polar		| 5.3972
  FragIndex	| 1
  FragRMSD	| 0.810

