@<TRIPOS>MOLECULE
BindingDB_8085
 75 77 0 0 0
SMALL
NO_CHARGES


@<TRIPOS>ATOM
1    C        24.7907   -9.9679    1.3273  C     
2    O        24.8397  -11.1849    1.1925  O     
3    C        24.5610   -9.9408    3.8658  C     
4    N        24.6645   -9.4021    2.5247  N     
5    C        25.6250   -9.2817    4.6497  C     
6    C        24.3486  -11.5120    3.9638  C     
7    C        24.2891  -12.1430    5.3829  C     
8    C        23.0425  -11.9349    3.2187  C     
9    O        25.9314   -8.1343    4.3424  O     
10   N        26.1756   -9.7670    5.7545  N     
11   C        27.3705   -9.3002    6.4152  C     
12   C        28.5284  -10.2408    5.9704  C     
13   C        27.1563   -9.2011    7.9579  C     
14   C        29.9777   -9.7362    6.2147  C     
15   C        31.7938   -8.5262    4.7964  C     
16   O        28.3753  -10.4839    4.5679  O     
17   N        30.3780   -8.6885    5.2426  N     
18   C        32.5631   -9.7640    4.6402  C     
19   O        32.9761  -10.1141    3.5433  O     
20   N        32.7354  -10.6204    5.6279  N     
21   C        32.5490   -7.3598    5.5200  C     
22   C        27.1078  -10.4861    8.7117  C     
23   C        25.9215  -11.2612    8.7381  C     
24   C        28.2260  -10.9514    9.4544  C     
25   C        28.1606  -12.1560   10.1760  C     
26   C        26.9840  -12.9263   10.1666  C     
27   C        25.8644  -12.4775    9.4406  C     
28   C        33.7906   -7.6726    6.2791  C     
29   C        33.7354   -8.2413    7.5802  C     
30   C        35.0686   -7.3838    5.7282  C     
31   C        36.2429   -7.6509    6.4734  C     
32   C        36.1697   -8.2080    7.7526  C     
33   C        34.9147   -8.5182    8.3072  C     
34   Br       37.7255   -8.5204    8.7295  Br    
35   C        24.9077   -9.1759    0.1956  C     
36   C        25.0968   -7.7952    0.1420  C     
37   C        25.2914   -7.4508   -1.1867  C     
38   C        24.9394   -9.6071   -1.1365  C     
39   O        25.1882   -8.5577   -1.9585  O     
40   H        23.6358   -9.5137    4.2608  H     
41   H        24.6348   -8.4369    2.4951  H     
42   H        25.1901  -11.9991    3.4628  H     
43   H        25.2990  -12.3485    5.7306  H     
44   H        23.7642  -13.0960    5.3898  H     
45   H        23.7742  -11.4746    6.0677  H     
46   H        22.1618  -11.6233    3.7902  H     
47   H        23.0034  -13.0181    3.1009  H     
48   H        22.9880  -11.5098    2.2193  H     
49   H        25.7820  -10.5515    6.1342  H     
50   H        27.6202   -8.2899    6.0771  H     
51   H        28.4079  -11.2079    6.4657  H     
52   H        27.9476   -8.5673    8.3638  H     
53   H        26.2221   -8.6585    8.1380  H     
54   H        30.0995   -9.3519    7.2184  H     
55   H        30.6356  -10.6005    6.1258  H     
56   H        31.6446   -8.1427    3.7801  H     
57   H        29.2362  -10.8462    4.2792  H     
58   H        29.8279   -8.8614    4.3957  H     
59   H        30.0608   -7.7826    5.6084  H     
60   H        33.1713  -11.4791    5.4606  H     
61   H        32.4045  -10.4172    6.5228  H     
62   H        32.7823   -6.6091    4.7600  H     
63   H        31.8506   -6.8730    6.2060  H     
64   H        25.0821  -10.9250    8.2563  H     
65   H        29.0921  -10.4089    9.4771  H     
66   H        28.9735  -12.4823   10.7046  H     
67   H        26.9352  -13.8015   10.6874  H     
68   H        25.0052  -13.0302    9.4306  H     
69   H        32.8330   -8.4479    8.0249  H     
70   H        35.1557   -6.9732    4.7997  H     
71   H        37.1638   -7.4136    6.0649  H     
72   H        34.8501   -8.9297    9.2347  H     
73   H        25.1457   -7.1444    0.9337  H     
74   H        25.5045   -6.5123   -1.5174  H     
75   H        24.8339  -10.5732   -1.4509  H     
@<TRIPOS>BOND
     1    1    2 2
     2    1    4 am
     3    1   35 1
     4    3    4 1
     5    3    5 1
     6    3    6 1
     7    5    9 2
     8    5   10 am
     9    6    7 1
    10    6    8 1
    11   10   11 1
    12   11   12 1
    13   11   13 1
    14   12   14 1
    15   12   16 1
    16   13   22 1
    17   14   17 1
    18   15   17 1
    19   15   18 1
    20   15   21 1
    21   18   19 2
    22   18   20 am
    23   21   28 1
    24   22   23 2
    25   22   24 1
    26   23   27 1
    27   24   25 2
    28   25   26 1
    29   26   27 2
    30   28   29 2
    31   28   30 1
    32   29   33 1
    33   30   31 2
    34   31   32 1
    35   32   33 2
    36   32   34 1
    37   35   36 1
    38   35   38 2
    39   36   37 2
    40   37   39 1
    41   38   39 1
    42    3   40 1
    43    4   41 1
    44    6   42 1
    45    7   43 1
    46    7   44 1
    47    7   45 1
    48    8   46 1
    49    8   47 1
    50    8   48 1
    51   10   49 1
    52   11   50 1
    53   12   51 1
    54   13   52 1
    55   13   53 1
    56   14   54 1
    57   14   55 1
    58   15   56 1
    59   16   57 1
    60   17   58 1
    61   17   59 1
    62   20   60 1
    63   20   61 1
    64   21   62 1
    65   21   63 1
    66   23   64 1
    67   24   65 1
    68   25   66 1
    69   26   67 1
    70   27   68 1
    71   29   69 1
    72   30   70 1
    73   31   71 1
    74   33   72 1
    75   36   73 1
    76   37   74 1
    77   38   75 1
@<TRIPOS>PROPERTY_DATA
  Total_Score	| 4.1567
  Crash		| -3.9561
  Polar		| 3.0599
  FragIndex	| 1
  FragRMSD	| 1.066

