@<TRIPOS>MOLECULE
BindingDB_8030
 91 94 0 0 0
SMALL
NO_CHARGES


@<TRIPOS>ATOM
1    C        26.6758   -8.9155    0.5148  C     
2    C        26.1023   -7.7712   -0.0642  C     
3    C        24.6999   -7.6335   -0.0592  C     
4    C        23.8951   -8.6479    0.5028  C     
5    C        24.4959   -9.7857    1.0823  C     
6    N        25.8704   -9.8665    1.0457  N     
7    C        23.7887  -10.8326    1.6607  C     
8    O        24.3848  -11.8802    1.8628  O     
9    N        22.5218  -10.7107    2.0416  N     
10   C        21.6889  -11.6133    2.7895  C     
11   C        22.1539  -11.8065    4.1681  C     
12   C        21.2373  -12.9154    2.0316  C     
13   C        22.0118  -14.2025    2.4221  C     
14   C        19.7042  -13.1553    2.1685  C     
15   O        21.3416  -11.6907    5.0891  O     
16   N        23.3777  -12.2476    4.4412  N     
17   C        24.0097  -12.3656    5.7303  C     
18   C        24.1548  -13.8714    6.1531  C     
19   C        25.3747  -11.6025    5.7060  C     
20   C        25.2402  -10.0507    5.6511  C     
21   O        26.2003  -12.0329    4.6251  O     
22   N        26.0642   -9.3261    6.6588  N     
23   C        27.4474   -8.8560    6.3466  C     
24   C        27.5102   -8.1726    5.0555  C     
25   O        28.3646   -8.4289    4.2163  O     
26   N        26.6111   -7.2654    4.7471  N     
27   C        28.5759   -9.9246    6.5726  C     
28   C        30.0024   -9.4616    6.4448  C     
29   C        30.3554   -8.0936    6.3661  C     
30   C        31.6910   -7.6706    6.2458  C     
31   C        32.7159   -8.6184    6.2070  C     
32   C        32.4198  -10.0050    6.2725  C     
33   C        31.0596  -10.4088    6.4094  C     
34   C        23.0338  -14.5912    6.8378  C     
35   C        22.1371  -14.0093    7.7673  C     
36   C        21.1376  -14.7852    8.3913  C     
37   C        21.0373  -16.1611    8.1281  C     
38   C        21.9415  -16.7634    7.2387  C     
39   C        22.9272  -15.9895    6.6049  C     
40   C        33.4810  -10.9554    6.2199  C     
41   C        35.6470  -11.7165    5.3496  C     
42   C        35.6257  -12.8083    6.2429  C     
43   C        34.5389  -12.9780    7.1161  C     
44   C        33.4726  -12.0609    7.1040  C     
45   C        34.5786  -10.7974    5.3288  C     
46   O        34.6372   -9.7430    4.4517  O     
47   C        33.9338   -9.9727    3.2192  C     
48   H        27.6961   -9.0434    0.5290  H     
49   H        26.6913   -7.0378   -0.4602  H     
50   H        24.2677   -6.7966   -0.4513  H     
51   H        22.8789   -8.5339    0.4766  H     
52   H        22.1064   -9.8623    1.8273  H     
53   H        20.7860  -11.0080    2.8751  H     
54   H        21.4125  -12.7540    0.9690  H     
55   H        23.0824  -14.0842    2.2297  H     
56   H        21.6621  -15.0613    1.8519  H     
57   H        21.8662  -14.4336    3.4751  H     
58   H        19.4106  -13.1760    3.2212  H     
59   H        19.4014  -14.0993    1.7091  H     
60   H        19.1473  -12.3595    1.6707  H     
61   H        23.9243  -12.4758    3.6669  H     
62   H        23.4083  -11.8436    6.4626  H     
63   H        24.4394  -14.4526    5.2662  H     
64   H        24.9970  -13.9648    6.8409  H     
65   H        25.9132  -11.8651    6.6274  H     
66   H        25.4259   -9.6818    4.6310  H     
67   H        24.2141   -9.7730    5.8868  H     
68   H        25.8074  -11.6553    3.8067  H     
69   H        25.5314   -8.4830    6.8886  H     
70   H        26.1070   -9.8824    7.5092  H     
71   H        27.5885   -8.0919    7.1188  H     
72   H        26.6452   -6.8262    3.8923  H     
73   H        25.8881   -7.0716    5.3611  H     
74   H        28.4544  -10.3476    7.5693  H     
75   H        28.4090  -10.7290    5.8631  H     
76   H        29.6482   -7.3614    6.4021  H     
77   H        31.9033   -6.6763    6.2039  H     
78   H        33.6847   -8.2802    6.1400  H     
79   H        30.8339  -11.4104    6.4636  H     
80   H        22.2016  -13.0278    8.0259  H     
81   H        20.4817  -14.3423    9.0446  H     
82   H        20.3103  -16.7157    8.5832  H     
83   H        21.8720  -17.7613    7.0410  H     
84   H        23.5725  -16.4499    5.9560  H     
85   H        36.4390  -11.6030    4.7154  H     
86   H        36.4016  -13.4742    6.2554  H     
87   H        34.5240  -13.7643    7.7678  H     
88   H        32.7069  -12.1994    7.7657  H     
89   H        34.4139  -10.7642    2.6422  H     
90   H        33.9667   -9.0551    2.6296  H     
91   H        32.8845  -10.2278    3.3899  H     
@<TRIPOS>BOND
     1    1    2 1
     2    1    6 2
     3    2    3 2
     4    3    4 1
     5    4    5 2
     6    5    6 1
     7    5    7 1
     8    7    8 2
     9    7    9 am
    10    9   10 1
    11   10   11 1
    12   10   12 1
    13   11   15 2
    14   11   16 am
    15   12   13 1
    16   12   14 1
    17   16   17 1
    18   17   18 1
    19   17   19 1
    20   18   34 1
    21   19   20 1
    22   19   21 1
    23   20   22 1
    24   22   23 1
    25   23   24 1
    26   23   27 1
    27   24   25 2
    28   24   26 am
    29   27   28 1
    30   28   29 2
    31   28   33 1
    32   29   30 1
    33   30   31 2
    34   31   32 1
    35   32   33 2
    36   32   40 1
    37   34   35 2
    38   34   39 1
    39   35   36 1
    40   36   37 2
    41   37   38 1
    42   38   39 2
    43   40   44 1
    44   40   45 2
    45   41   42 2
    46   41   45 1
    47   42   43 1
    48   43   44 2
    49   45   46 1
    50   46   47 1
    51    1   48 1
    52    2   49 1
    53    3   50 1
    54    4   51 1
    55    9   52 1
    56   10   53 1
    57   12   54 1
    58   13   55 1
    59   13   56 1
    60   13   57 1
    61   14   58 1
    62   14   59 1
    63   14   60 1
    64   16   61 1
    65   17   62 1
    66   18   63 1
    67   18   64 1
    68   19   65 1
    69   20   66 1
    70   20   67 1
    71   21   68 1
    72   22   69 1
    73   22   70 1
    74   23   71 1
    75   26   72 1
    76   26   73 1
    77   27   74 1
    78   27   75 1
    79   29   76 1
    80   30   77 1
    81   31   78 1
    82   33   79 1
    83   35   80 1
    84   36   81 1
    85   37   82 1
    86   38   83 1
    87   39   84 1
    88   41   85 1
    89   42   86 1
    90   43   87 1
    91   44   88 1
    92   47   89 1
    93   47   90 1
    94   47   91 1
@<TRIPOS>PROPERTY_DATA
  Total_Score	| 7.2180
  Crash		| -5.5712
  Polar		| 6.2398
  FragIndex	| 1
  FragRMSD	| 0.737

