@<TRIPOS>MOLECULE
BindingDB_8112
 88 92 0 0 0
SMALL
NO_CHARGES


@<TRIPOS>ATOM
1    C        25.2635   -9.0726    3.5253  C     
2    O        24.2115   -9.1384    4.1527  O     
3    C        24.1171   -9.4045    1.3622  C     
4    N        25.2514   -9.0875    2.1944  N     
5    C        23.7850  -10.8008    1.6294  C     
6    C        24.4086   -9.1215   -0.1542  C     
7    C        23.2143   -9.4996   -1.0790  C     
8    C        24.7960   -7.6355   -0.3986  C     
9    O        24.5726  -11.6684    1.2704  O     
10   N        22.6871  -11.1118    2.3065  N     
11   C        22.2053  -12.4326    2.6160  C     
12   C        20.6729  -12.3865    2.9387  C     
13   C        23.1579  -13.1377    3.6443  C     
14   C        19.8188  -13.6607    2.6559  C     
15   C        18.9721  -15.8309    3.7363  C     
16   O        20.0710  -11.3369    2.1727  O     
17   N        20.0355  -14.7947    3.5860  N     
18   C        17.8679  -15.4309    4.6141  C     
19   O        17.0787  -16.2700    5.0286  O     
20   N        17.6088  -14.1883    4.9525  N     
21   C        19.6069  -17.1863    4.1917  C     
22   C        23.1946  -12.7699    5.0963  C     
23   C        23.9615  -13.5706    5.9856  C     
24   C        22.4274  -11.7238    5.6571  C     
25   C        22.4563  -11.4599    7.0437  C     
26   C        23.2331  -12.2524    7.9011  C     
27   C        23.9804  -13.3174    7.3744  C     
28   C        20.8272  -17.1876    5.0539  C     
29   C        21.8767  -18.0785    4.7340  C     
30   C        21.0050  -16.3374    6.1669  C     
31   C        22.2192  -16.3121    6.8766  C     
32   C        23.2848  -17.1717    6.5243  C     
33   C        23.0847  -18.0748    5.4546  C     
34   C        24.5240  -17.1021    7.2147  C     
35   C        25.5876  -18.0150    7.1893  C     
36   C        26.9091  -15.5129    9.3569  C     
37   C        26.1180  -16.2925    8.5000  C     
38   C        26.5859  -17.5092    8.0045  C     
39   C        27.8542  -18.0046    8.3592  C     
40   C        28.6508  -17.2349    9.2329  C     
41   C        28.1846  -15.9923    9.7283  C     
42   O        24.8734  -16.0615    8.0239  O     
43   C        26.4605   -9.0490    4.2219  C     
44   C        27.7523   -9.0142    3.7000  C     
45   C        28.6370   -9.0682    4.7646  C     
46   C        26.6242   -9.1153    5.6094  C     
47   O        27.9394   -9.1278    5.9226  O     
48   H        23.2864   -8.7555    1.6508  H     
49   H        26.1089   -9.0019    1.7452  H     
50   H        25.2657   -9.7307   -0.4616  H     
51   H        22.9881  -10.5649   -1.0036  H     
52   H        23.4547   -9.2880   -2.1229  H     
53   H        22.3203   -8.9349   -0.8063  H     
54   H        23.9704   -6.9688   -0.1331  H     
55   H        25.0495   -7.4707   -1.4510  H     
56   H        25.6689   -7.3658    0.1967  H     
57   H        22.1124  -10.3738    2.5567  H     
58   H        22.2627  -13.0255    1.6928  H     
59   H        20.5197  -12.1051    3.9705  H     
60   H        23.0085  -14.2133    3.6046  H     
61   H        24.1740  -12.9806    3.2573  H     
62   H        18.7705  -13.3681    2.6915  H     
63   H        20.0231  -14.0081    1.6518  H     
64   H        18.5208  -16.0133    2.7538  H     
65   H        20.3148  -11.5148    1.2333  H     
66   H        20.8780  -15.2812    3.2606  H     
67   H        20.2346  -14.4152    4.5089  H     
68   H        16.8477  -14.0085    5.5252  H     
69   H        18.1563  -13.4589    4.6223  H     
70   H        18.8515  -17.8019    4.6868  H     
71   H        19.8666  -17.7130    3.2696  H     
72   H        24.5067  -14.3550    5.6332  H     
73   H        21.8307  -11.1371    5.0869  H     
74   H        21.8945  -10.6993    7.4399  H     
75   H        23.2508  -12.0637    8.9013  H     
76   H        24.5195  -13.9202    7.9980  H     
77   H        21.7835  -18.7227    3.9472  H     
78   H        20.2543  -15.7153    6.4655  H     
79   H        22.3105  -15.6581    7.6592  H     
80   H        23.8233  -18.7185    5.1581  H     
81   H        25.6316  -18.8977    6.6759  H     
82   H        26.5684  -14.6137    9.7033  H     
83   H        28.1884  -18.8979    7.9968  H     
84   H        29.5724  -17.5782    9.5161  H     
85   H        28.7753  -15.4408   10.3573  H     
86   H        28.0141   -8.9694    2.7145  H     
87   H        29.6561   -9.0639    4.6906  H     
88   H        25.8697   -9.1678    6.2982  H     
@<TRIPOS>BOND
     1    1    2 2
     2    1    4 am
     3    1   43 1
     4    3    4 1
     5    3    5 1
     6    3    6 1
     7    5    9 2
     8    5   10 am
     9    6    7 1
    10    6    8 1
    11   10   11 1
    12   11   12 1
    13   11   13 1
    14   12   14 1
    15   12   16 1
    16   13   22 1
    17   14   17 1
    18   15   17 1
    19   15   18 1
    20   15   21 1
    21   18   19 2
    22   18   20 am
    23   21   28 1
    24   22   23 2
    25   22   24 1
    26   23   27 1
    27   24   25 2
    28   25   26 1
    29   26   27 2
    30   28   29 2
    31   28   30 1
    32   29   33 1
    33   30   31 2
    34   31   32 1
    35   32   33 2
    36   32   34 1
    37   34   35 2
    38   34   42 1
    39   35   38 1
    40   36   37 1
    41   36   41 2
    42   37   38 2
    43   37   42 1
    44   38   39 1
    45   39   40 2
    46   40   41 1
    47   43   44 1
    48   43   46 2
    49   44   45 2
    50   45   47 1
    51   46   47 1
    52    3   48 1
    53    4   49 1
    54    6   50 1
    55    7   51 1
    56    7   52 1
    57    7   53 1
    58    8   54 1
    59    8   55 1
    60    8   56 1
    61   10   57 1
    62   11   58 1
    63   12   59 1
    64   13   60 1
    65   13   61 1
    66   14   62 1
    67   14   63 1
    68   15   64 1
    69   16   65 1
    70   17   66 1
    71   17   67 1
    72   20   68 1
    73   20   69 1
    74   21   70 1
    75   21   71 1
    76   23   72 1
    77   24   73 1
    78   25   74 1
    79   26   75 1
    80   27   76 1
    81   29   77 1
    82   30   78 1
    83   31   79 1
    84   33   80 1
    85   35   81 1
    86   36   82 1
    87   39   83 1
    88   40   84 1
    89   41   85 1
    90   44   86 1
    91   45   87 1
    92   46   88 1
@<TRIPOS>PROPERTY_DATA
  Total_Score	| 6.5909
  Crash		| -2.7465
  Polar		| 3.0603
  FragIndex	| 1
  FragRMSD	| 0.865

