@<TRIPOS>MOLECULE
BindingDB_8001
 76 79 0 0 0
SMALL
NO_CHARGES


@<TRIPOS>ATOM
1    C        24.6227   -9.5028    1.8184  C     
2    C        24.4441  -10.5006    0.7689  C     
3    C        22.9452  -10.8385    0.4511  C     
4    C        21.9869  -11.0391    1.6931  C     
5    C        21.7332  -12.5243    2.1112  C     
6    C        20.8457  -12.6367    3.2778  C     
7    N        25.3077   -9.8014    2.9173  N     
8    O        24.1688   -8.3746    1.6559  O     
9    C        25.6183  -10.8557   -1.4033  C     
10   O        25.1573   -9.9655   -0.3709  O     
11   O        22.4363   -9.8526   -0.4536  O     
12   O        20.7120  -10.4449    1.4039  O     
13   O        23.0075  -13.1651    2.3426  O     
14   C        23.0998  -14.5856    2.0896  C     
15   N        21.1317  -13.4209    4.3160  N     
16   C        26.7991   -8.1976    4.1887  C     
17   C        25.4474   -8.9720    4.0830  C     
18   C        27.3036   -8.3684    5.6450  C     
19   O        27.7809   -8.6893    3.2725  O     
20   C        26.4786   -9.4424    6.1782  C     
21   C        24.6437  -11.4409    6.9057  C     
22   C        25.6823  -11.0705    7.7946  C     
23   C        26.6019  -10.0599    7.4360  C     
24   C        25.4496   -9.7958    5.3007  C     
25   C        24.5257  -10.7972    5.6558  C     
26   C        20.8226  -13.0457    6.7890  C     
27   C        20.3017  -13.7010    5.4609  C     
28   C        21.2558  -14.1988    7.7367  C     
29   O        21.9055  -12.1462    6.6007  O     
30   C        20.3405  -15.1366    5.7599  C     
31   C        19.8882  -16.1880    4.9392  C     
32   C        19.9846  -17.5184    5.4013  C     
33   C        20.5374  -17.7903    6.6727  C     
34   C        20.9886  -16.7324    7.4897  C     
35   C        20.8765  -15.4074    7.0223  C     
36   O        19.7913  -12.0137    3.2555  O     
37   C        23.8288  -15.2424    3.1551  C     
38   C        23.9234  -16.5732    3.2404  C     
39   Br       24.7475  -17.3632    4.6678  Br    
40   C        24.5794  -11.2071   -2.3512  C     
41   C        24.6070  -12.3194   -3.0965  C     
42   Br       23.2308  -12.7001   -4.2393  Br    
43   H        24.9273  -11.4255    1.0873  H     
44   H        22.9295  -11.7716   -0.1163  H     
45   H        22.3984  -10.5009    2.5525  H     
46   H        21.2386  -13.0102    1.2623  H     
47   H        25.6662  -10.7024    2.9798  H     
48   H        26.3849  -10.3116   -1.9596  H     
49   H        26.0892  -11.7453   -0.9744  H     
50   H        22.1681   -9.1004    0.1073  H     
51   H        20.7860   -9.5146    1.6904  H     
52   H        22.1159  -15.0586    2.0114  H     
53   H        23.6266  -14.7279    1.1430  H     
54   H        21.9827  -13.8860    4.2870  H     
55   H        26.6397   -7.1307    3.9821  H     
56   H        24.6060   -8.2805    4.1664  H     
57   H        28.3651   -8.6388    5.6844  H     
58   H        27.1404   -7.4633    6.2372  H     
59   H        27.8105   -8.0172    2.5655  H     
60   H        23.9765  -12.1677    7.1704  H     
61   H        25.7547  -11.5269    8.7139  H     
62   H        27.3410   -9.7849    8.0834  H     
63   H        23.7722  -11.0511    5.0161  H     
64   H        19.9973  -12.4816    7.2621  H     
65   H        19.2582  -13.4088    5.2989  H     
66   H        22.3346  -14.2028    7.9105  H     
67   H        20.7340  -14.1385    8.6967  H     
68   H        21.5894  -11.4853    5.9380  H     
69   H        19.4807  -15.9956    4.0246  H     
70   H        19.6499  -18.2909    4.8192  H     
71   H        20.5990  -18.7588    7.0080  H     
72   H        21.3881  -16.9297    8.4102  H     
73   H        24.2335  -14.6887    3.8762  H     
74   H        23.5097  -17.1586    2.5531  H     
75   H        23.8059  -10.5875   -2.4536  H     
76   H        25.3544  -12.9672   -3.0211  H     
@<TRIPOS>BOND
     1    1    2 1
     2    1    7 am
     3    1    8 2
     4    2    3 1
     5    2   10 1
     6    3    4 1
     7    3   11 1
     8    4    5 1
     9    4   12 1
    10    5    6 1
    11    5   13 1
    12    6   15 am
    13    6   36 2
    14   17    7 1
    15    9   10 1
    16    9   40 1
    17   13   14 1
    18   14   37 1
    19   27   15 1
    20   16   17 1
    21   16   18 1
    22   16   19 1
    23   17   24 1
    24   18   20 1
    25   20   23 2
    26   20   24 1
    27   21   22 2
    28   21   25 1
    29   22   23 1
    30   24   25 2
    31   26   27 1
    32   26   28 1
    33   26   29 1
    34   27   30 1
    35   28   35 1
    36   30   31 1
    37   30   35 2
    38   31   32 2
    39   32   33 1
    40   33   34 2
    41   34   35 1
    42   37   38 2
    43   38   39 1
    44   40   41 2
    45   41   42 1
    46    2   43 1
    47    3   44 1
    48    4   45 1
    49    5   46 1
    50    7   47 1
    51    9   48 1
    52    9   49 1
    53   11   50 1
    54   12   51 1
    55   14   52 1
    56   14   53 1
    57   15   54 1
    58   16   55 1
    59   17   56 1
    60   18   57 1
    61   18   58 1
    62   19   59 1
    63   21   60 1
    64   22   61 1
    65   23   62 1
    66   25   63 1
    67   26   64 1
    68   27   65 1
    69   28   66 1
    70   28   67 1
    71   29   68 1
    72   31   69 1
    73   32   70 1
    74   33   71 1
    75   34   72 1
    76   37   73 1
    77   38   74 1
    78   40   75 1
    79   41   76 1
@<TRIPOS>PROPERTY_DATA
  Total_Score	| 8.9830
  Crash		| -2.1723
  Polar		| 4.4489
  FragIndex	| 1
  FragRMSD	| 1.249

