@<TRIPOS>MOLECULE
BindingDB_8089
 86 88 0 0 0
SMALL
NO_CHARGES


@<TRIPOS>ATOM
1    C        24.9140   -9.2929    3.9039  C     
2    O        23.7404   -9.3101    4.2536  O     
3    C        24.1714   -9.4661    1.5527  C     
4    N        25.1523   -9.2480    2.5914  N     
5    C        23.7790  -10.8724    1.6205  C     
6    C        24.6886   -9.0395    0.1306  C     
7    C        23.8936   -9.7048   -1.0359  C     
8    C        24.6417   -7.4935   -0.0557  C     
9    O        24.5151  -11.7175    1.1298  O     
10   N        22.6649  -11.2258    2.2584  N     
11   C        22.1557  -12.5623    2.4062  C     
12   C        20.5974  -12.5106    2.5284  C     
13   C        22.9063  -13.3651    3.5353  C     
14   C        19.9408  -13.9178    2.5192  C     
15   C        17.7396  -15.1506    2.4777  C     
16   O        20.0525  -11.7277    1.4610  O     
17   N        18.4617  -13.8482    2.3974  N     
18   C        16.4306  -15.0004    1.8401  C     
19   O        15.6888  -14.0758    2.1398  O     
20   N        15.9963  -15.8500    0.9334  N     
21   C        17.7172  -15.7321    3.9439  C     
22   C        22.2467  -13.4503    4.8710  C     
23   C        21.8596  -14.7034    5.4148  C     
24   C        22.0100  -12.2874    5.6384  C     
25   C        21.3644  -12.3678    6.8875  C     
26   C        20.9529  -13.6146    7.3873  C     
27   C        21.2042  -14.7842    6.6550  C     
28   C        16.3889  -15.8608    4.5967  C     
29   C        15.8449  -17.1216    4.9325  C     
30   C        15.6191  -14.6986    4.8556  C     
31   C        14.3186  -14.8005    5.3829  C     
32   C        13.7683  -16.0666    5.6544  C     
33   C        14.5360  -17.2297    5.4391  C     
34   Br       12.0065  -16.2170    6.2284  Br    
35   C        25.9078   -9.3855    4.8928  C     
36   C        27.2326   -9.8353    4.6190  C     
37   C        28.2009   -9.9239    5.6506  C     
38   C        27.8436   -9.6486    6.9814  C     
39   C        26.5354   -9.2484    7.2858  C     
40   C        25.5881   -9.1180    6.2556  C     
41   O        29.4739  -10.3464    5.3759  O     
42   C        30.4286   -9.2725    5.4356  C     
43   O        27.6079  -10.2490    3.3678  O     
44   C        27.0168  -11.5154    3.0172  C     
45   H        23.3088   -8.8311    1.7634  H     
46   H        26.0703   -9.1286    2.3060  H     
47   H        25.7364   -9.3464    0.0409  H     
48   H        24.0287  -10.7894   -1.0272  H     
49   H        24.2430   -9.3363   -2.0059  H     
50   H        22.8245   -9.4880   -0.9450  H     
51   H        23.6085   -7.1383   -0.0921  H     
52   H        25.1422   -7.2016   -0.9825  H     
53   H        25.1480   -6.9994    0.7708  H     
54   H        22.1161  -10.5044    2.6022  H     
55   H        22.3585  -13.0784    1.4599  H     
56   H        20.3261  -11.9993    3.4581  H     
57   H        23.0802  -14.3776    3.1590  H     
58   H        23.9001  -12.9404    3.6947  H     
59   H        20.3387  -14.4924    1.6770  H     
60   H        20.2051  -14.4451    3.4351  H     
61   H        18.3041  -15.8665    1.8662  H     
62   H        20.5235  -12.0277    0.6560  H     
63   H        18.0966  -13.2227    3.1240  H     
64   H        18.2599  -13.4281    1.4872  H     
65   H        15.1290  -15.7123    0.5247  H     
66   H        16.5417  -16.6066    0.6669  H     
67   H        18.2026  -16.7172    3.9239  H     
68   H        18.3298  -15.1145    4.6107  H     
69   H        22.0380  -15.5707    4.9009  H     
70   H        22.2884  -11.3712    5.2874  H     
71   H        21.2032  -11.5249    7.4405  H     
72   H        20.4843  -13.6787    8.2899  H     
73   H        20.8985  -15.6941    7.0153  H     
74   H        16.3734  -17.9773    4.7603  H     
75   H        15.9965  -13.7767    4.6352  H     
76   H        13.7650  -13.9541    5.5348  H     
77   H        14.1402  -18.1474    5.6423  H     
78   H        28.5339   -9.7436    7.7304  H     
79   H        26.2712   -9.0544    8.2547  H     
80   H        24.6453   -8.8322    6.5270  H     
81   H        30.2051   -8.4989    4.6947  H     
82   H        31.4124   -9.6837    5.2077  H     
83   H        30.4687   -8.8211    6.4316  H     
84   H        27.4542  -12.3171    3.6147  H     
85   H        27.2255  -11.7155    1.9666  H     
86   H        25.9329  -11.5252    3.1509  H     
@<TRIPOS>BOND
     1    1    2 2
     2    1    4 am
     3    1   35 1
     4    3    4 1
     5    3    5 1
     6    3    6 1
     7    5    9 2
     8    5   10 am
     9    6    7 1
    10    6    8 1
    11   10   11 1
    12   11   12 1
    13   11   13 1
    14   12   14 1
    15   12   16 1
    16   13   22 1
    17   14   17 1
    18   15   17 1
    19   15   18 1
    20   15   21 1
    21   18   19 2
    22   18   20 am
    23   21   28 1
    24   22   23 2
    25   22   24 1
    26   23   27 1
    27   24   25 2
    28   25   26 1
    29   26   27 2
    30   28   29 2
    31   28   30 1
    32   29   33 1
    33   30   31 2
    34   31   32 1
    35   32   33 2
    36   32   34 1
    37   35   36 2
    38   35   40 1
    39   36   37 1
    40   36   43 1
    41   37   38 2
    42   37   41 1
    43   38   39 1
    44   39   40 2
    45   41   42 1
    46   43   44 1
    47    3   45 1
    48    4   46 1
    49    6   47 1
    50    7   48 1
    51    7   49 1
    52    7   50 1
    53    8   51 1
    54    8   52 1
    55    8   53 1
    56   10   54 1
    57   11   55 1
    58   12   56 1
    59   13   57 1
    60   13   58 1
    61   14   59 1
    62   14   60 1
    63   15   61 1
    64   16   62 1
    65   17   63 1
    66   17   64 1
    67   20   65 1
    68   20   66 1
    69   21   67 1
    70   21   68 1
    71   23   69 1
    72   24   70 1
    73   25   71 1
    74   26   72 1
    75   27   73 1
    76   29   74 1
    77   30   75 1
    78   31   76 1
    79   33   77 1
    80   38   78 1
    81   39   79 1
    82   40   80 1
    83   42   81 1
    84   42   82 1
    85   42   83 1
    86   44   84 1
    87   44   85 1
    88   44   86 1
@<TRIPOS>PROPERTY_DATA
  Total_Score	| 7.8958
  Crash		| -3.5283
  Polar		| 3.6620
  FragIndex	| 1
  FragRMSD	| 1.211

