@<TRIPOS>MOLECULE
BindingDB_8091
 93 95 0 0 0
SMALL
NO_CHARGES


@<TRIPOS>ATOM
1    C        25.2711   -9.0506    3.5840  C     
2    O        24.2137   -9.1397    4.2050  O     
3    C        24.1862   -9.4423    1.3950  C     
4    N        25.2964   -9.1559    2.2562  N     
5    C        23.7285  -10.8059    1.6383  C     
6    C        24.5836   -9.1842   -0.1077  C     
7    C        23.5561   -9.7712   -1.1225  C     
8    C        24.7964   -7.6696   -0.4000  C     
9    O        24.4646  -11.7301    1.3141  O     
10   N        22.5444  -11.0393    2.2042  N     
11   C        21.9317  -12.3354    2.3734  C     
12   C        20.3717  -12.2048    2.5556  C     
13   C        22.6182  -13.1642    3.5165  C     
14   C        19.5879  -13.5063    2.1717  C     
15   C        18.1812  -15.4342    3.0367  C     
16   O        19.8525  -11.1183    1.7673  O     
17   N        18.8033  -14.0898    3.2963  N     
18   C        17.0774  -15.3683    2.0910  C     
19   O        16.5674  -14.3040    1.7464  O     
20   N        16.5497  -16.4742    1.5926  N     
21   C        17.8221  -16.1667    4.3827  C     
22   C        22.4786  -12.5993    4.8836  C     
23   C        23.4547  -11.7237    5.4294  C     
24   C        21.3486  -12.9332    5.6676  C     
25   C        21.1681  -12.3685    6.9486  C     
26   C        22.1241  -11.4731    7.4591  C     
27   C        23.2713  -11.1597    6.7034  C     
28   C        16.4020  -16.1315    4.8310  C     
29   C        15.7042  -17.3323    5.1300  C     
30   C        15.7281  -14.9017    5.0072  C     
31   C        14.3809  -14.8709    5.4232  C     
32   C        13.6994  -16.0695    5.6894  C     
33   C        14.3611  -17.3000    5.5481  C     
34   Br       11.9086  -16.0450    6.1983  Br    
35   C        26.4305   -8.8199    4.2258  C     
36   C        26.8805   -9.5576    5.2584  C     
37   C        28.0714   -9.3334    5.8346  C     
38   O        28.0733   -8.8146    6.9475  O     
39   C        30.4527   -9.5069    5.6829  C     
40   C        31.1687  -10.5817    6.2574  C     
41   C        32.4075  -10.3541    6.8914  C     
42   C        32.9894   -9.0695    6.8430  C     
43   C        32.3283   -8.0176    6.1928  C     
44   C        31.0606   -8.2303    5.6226  C     
45   N        29.1887   -9.7059    5.2153  N     
46   C        32.4388  -12.0321    8.6112  C     
47   C        32.3898  -11.2521    9.9459  C     
48   O        33.1004  -11.3466    7.5252  O     
49   H        23.3856   -8.7373    1.6368  H     
50   H        26.1642   -9.0378    1.8300  H     
51   H        25.5413   -9.6830   -0.3032  H     
52   H        23.5279  -10.8624   -1.0521  H     
53   H        23.8360   -9.5110   -2.1493  H     
54   H        22.5548   -9.3790   -0.9263  H     
55   H        23.8734   -7.1105   -0.2269  H     
56   H        25.1078   -7.5181   -1.4377  H     
57   H        25.5776   -7.2581    0.2402  H     
58   H        21.9969  -10.2619    2.3995  H     
59   H        22.0966  -12.8728    1.4280  H     
60   H        20.1849  -11.9553    3.6197  H     
61   H        22.2102  -14.1789    3.5161  H     
62   H        23.6738  -13.2828    3.2815  H     
63   H        18.9078  -13.3045    1.3402  H     
64   H        20.3006  -14.2591    1.8255  H     
65   H        18.9426  -16.0617    2.5573  H     
66   H        20.0839  -11.3260    0.8282  H     
67   H        19.4333  -14.1814    4.0978  H     
68   H        18.0668  -13.4239    3.5564  H     
69   H        15.8108  -16.4234    0.9675  H     
70   H        16.8829  -17.3431    1.8795  H     
71   H        18.1352  -17.2078    4.2739  H     
72   H        18.4302  -15.7679    5.1928  H     
73   H        24.2863  -11.4701    4.8896  H     
74   H        20.6641  -13.5859    5.3068  H     
75   H        20.3380  -12.5936    7.4894  H     
76   H        21.9792  -11.0321    8.3657  H     
77   H        23.9692  -10.5108    7.0855  H     
78   H        16.1644  -18.2398    5.0344  H     
79   H        16.2079  -14.0218    4.8107  H     
80   H        13.9034  -13.9735    5.5340  H     
81   H        13.8706  -18.1763    5.7478  H     
82   H        27.0147   -8.0873    3.8765  H     
83   H        26.3297  -10.3012    5.6242  H     
84   H        30.7564  -11.5158    6.2650  H     
85   H        33.8952   -8.8980    7.2872  H     
86   H        32.7632   -7.0930    6.1365  H     
87   H        30.5912   -7.4540    5.1515  H     
88   H        29.0941  -10.2306    4.3977  H     
89   H        32.9920  -12.9598    8.7835  H     
90   H        31.4217  -12.3021    8.3118  H     
91   H        33.3874  -10.8953   10.2132  H     
92   H        32.0257  -11.9054   10.7442  H     
93   H        31.7138  -10.3970    9.8600  H     
@<TRIPOS>BOND
     1    1    2 2
     2    1    4 am
     3    1   35 1
     4    3    4 1
     5    3    5 1
     6    3    6 1
     7    5    9 2
     8    5   10 am
     9    6    7 1
    10    6    8 1
    11   10   11 1
    12   11   12 1
    13   11   13 1
    14   12   14 1
    15   12   16 1
    16   13   22 1
    17   14   17 1
    18   15   17 1
    19   15   18 1
    20   15   21 1
    21   18   19 2
    22   18   20 am
    23   21   28 1
    24   22   23 2
    25   22   24 1
    26   23   27 1
    27   24   25 2
    28   25   26 1
    29   26   27 2
    30   28   29 2
    31   28   30 1
    32   29   33 1
    33   30   31 2
    34   31   32 1
    35   32   33 2
    36   32   34 1
    37   35   36 2
    38   36   37 1
    39   37   38 2
    40   37   45 am
    41   39   40 1
    42   39   44 2
    43   39   45 1
    44   40   41 2
    45   41   42 1
    46   41   48 1
    47   42   43 2
    48   43   44 1
    49   46   47 1
    50   46   48 1
    51    3   49 1
    52    4   50 1
    53    6   51 1
    54    7   52 1
    55    7   53 1
    56    7   54 1
    57    8   55 1
    58    8   56 1
    59    8   57 1
    60   10   58 1
    61   11   59 1
    62   12   60 1
    63   13   61 1
    64   13   62 1
    65   14   63 1
    66   14   64 1
    67   15   65 1
    68   16   66 1
    69   17   67 1
    70   17   68 1
    71   20   69 1
    72   20   70 1
    73   21   71 1
    74   21   72 1
    75   23   73 1
    76   24   74 1
    77   25   75 1
    78   26   76 1
    79   27   77 1
    80   29   78 1
    81   30   79 1
    82   31   80 1
    83   33   81 1
    84   35   82 1
    85   36   83 1
    86   40   84 1
    87   42   85 1
    88   43   86 1
    89   44   87 1
    90   45   88 1
    91   46   89 1
    92   46   90 1
    93   47   91 1
    94   47   92 1
    95   47   93 1
@<TRIPOS>PROPERTY_DATA
  Total_Score	| 8.2297
  Crash		| -2.9273
  Polar		| 3.8769
  FragIndex	| 1
  FragRMSD	| 1.093

