@<TRIPOS>MOLECULE
BindingDB_50173742
 87 89 0 0 0
SMALL
NO_CHARGES


@<TRIPOS>ATOM
1    C        25.2477   -8.8020    4.0016  C     
2    C        26.3274   -8.1863    4.7804  C     
3    N        25.2365   -8.6884    2.6759  N     
4    C        26.7053  -10.8864    7.5983  C     
5    C        26.3902   -8.5194    6.3238  C     
6    C        27.3406   -9.6931    6.7975  C     
7    C        24.1878   -9.1203    1.7946  C     
8    C        25.3407  -11.1803    7.1683  C     
9    C        24.5850   -9.0332    0.3857  C     
10   C        24.2911  -10.2013   -0.3172  C     
11   C        23.7372  -10.6079    1.9427  C     
12   N        24.3603  -11.3524    8.0405  N     
13   C        23.6131  -11.1899    0.5114  C     
14   N        21.5621  -13.8456    4.5898  N     
15   C        22.5044  -12.6504    7.5517  C     
16   N        23.3294  -15.6799    3.1149  N     
17   C        21.1837  -12.7225    6.9425  C     
18   N        23.1149  -11.4846    7.6766  N     
19   O        24.2448   -9.2050    4.5717  O     
20   C        29.0249  -11.2632    9.7295  C     
21   C        28.2030   -9.4371    2.1714  C     
22   O        25.1350  -11.3591    5.9741  O     
23   C        29.9810  -12.0880   10.1754  C     
24   C        27.8029  -10.4586    1.3926  C     
25   O        23.0857  -13.6873    7.8543  O     
26   C        21.1820  -12.6226    5.3848  C     
27   O        27.6413   -8.2506    4.1577  O     
28   O        26.7067   -7.3024    7.0225  O     
29   O        28.4571   -9.1726    7.5400  O     
30   O        26.8013  -10.6409    9.0304  O     
31   C        22.3899  -14.8794    5.2979  C     
32   C        22.1906  -13.4596    3.2835  C     
33   C        22.4976  -14.6792    2.3871  C     
34   C        22.6836  -16.1012    4.3955  C     
35   O        24.6544  -11.3979    2.7021  O     
36   Br       31.7491  -11.6421   10.0074  Br    
37   Br       27.8462  -10.3272   -0.4213  Br    
38   C        25.1567   -7.9323   -0.2793  C     
39   C        28.1581   -9.4957    3.6075  C     
40   C        27.6084  -11.5700    9.7936  C     
41   C        24.6010  -10.3245   -1.6852  C     
42   C        23.7089  -16.8343    2.2459  C     
43   C        25.4993   -8.0526   -1.6396  C     
44   C        25.2377   -9.2497   -2.3386  C     
45   H        26.0926   -7.1172    4.7147  H     
46   H        26.0013   -8.2399    2.2791  H     
47   H        27.3054  -11.7642    7.3229  H     
48   H        25.3716   -8.7360    6.6588  H     
49   H        27.7880  -10.1554    5.9349  H     
50   H        23.3396   -8.4583    1.9480  H     
51   H        22.7649  -10.6411    2.4445  H     
52   H        24.5812  -11.4310    8.9854  H     
53   H        22.5651  -11.2773    0.1978  H     
54   H        24.1005  -12.1724    0.4215  H     
55   H        20.6793  -14.3163    4.3517  H     
56   H        24.2081  -15.2143    3.3723  H     
57   H        20.6836  -13.6574    7.2219  H     
58   H        20.5986  -11.8928    7.3525  H     
59   H        22.6529  -10.6835    7.3680  H     
60   H        29.3103  -10.4055    9.3155  H     
61   H        28.5728   -8.6243    1.7306  H     
62   H        29.7508  -12.9756   10.5626  H     
63   H        27.4773  -11.3112    1.7866  H     
64   H        21.7878  -11.7629    5.0894  H     
65   H        20.1534  -12.3841    5.0954  H     
66   H        27.5390   -6.9722    6.6172  H     
67   H        28.0558   -8.7948    8.3622  H     
68   H        23.3339  -14.4385    5.6378  H     
69   H        21.8380  -15.2521    6.1632  H     
70   H        21.5310  -12.7834    2.7273  H     
71   H        23.1344  -12.9381    3.4706  H     
72   H        23.0427  -14.3252    1.5080  H     
73   H        21.5537  -15.1247    2.0533  H     
74   H        21.7457  -16.6295    4.1937  H     
75   H        23.3484  -16.7743    4.9464  H     
76   H        25.5377  -11.1599    2.3603  H     
77   H        25.3508   -7.0717    0.2264  H     
78   H        27.5640  -10.3629    3.9239  H     
79   H        29.1756   -9.6221    3.9968  H     
80   H        27.4190  -12.5957    9.4587  H     
81   H        27.2866  -11.4985   10.8299  H     
82   H        24.3879  -11.1869   -2.1967  H     
83   H        22.8201  -17.3377    1.8472  H     
84   H        24.3033  -17.5598    2.8078  H     
85   H        24.3197  -16.4773    1.4102  H     
86   H        25.9635   -7.2810   -2.1085  H     
87   H        25.5074   -9.3430   -3.3179  H     
@<TRIPOS>BOND
     1    1    2 1
     2    1    3 am
     3    1   19 2
     4    2    5 1
     5    2   27 1
     6    7    3 1
     7    4    6 1
     8    4    8 1
     9    4   30 1
    10    5    6 1
    11    5   28 1
    12    6   29 1
    13    7    9 1
    14    7   11 1
    15    8   12 am
    16    8   22 2
    17    9   10 2
    18    9   38 1
    19   10   13 1
    20   10   41 1
    21   11   13 1
    22   11   35 1
    23   12   18 1
    24   14   26 1
    25   14   31 1
    26   14   32 1
    27   15   17 1
    28   15   18 am
    29   15   25 2
    30   16   33 1
    31   16   34 1
    32   16   42 1
    33   17   26 1
    34   20   23 2
    35   20   40 1
    36   21   24 2
    37   21   39 1
    38   23   36 1
    39   24   37 1
    40   27   39 1
    41   30   40 1
    42   31   34 1
    43   32   33 1
    44   38   43 2
    45   41   44 2
    46   43   44 1
    47    2   45 1
    48    3   46 1
    49    4   47 1
    50    5   48 1
    51    6   49 1
    52    7   50 1
    53   11   51 1
    54   12   52 1
    55   13   53 1
    56   13   54 1
    57   14   55 1
    58   16   56 1
    59   17   57 1
    60   17   58 1
    61   18   59 1
    62   20   60 1
    63   21   61 1
    64   23   62 1
    65   24   63 1
    66   26   64 1
    67   26   65 1
    68   28   66 1
    69   29   67 1
    70   31   68 1
    71   31   69 1
    72   32   70 1
    73   32   71 1
    74   33   72 1
    75   33   73 1
    76   34   74 1
    77   34   75 1
    78   35   76 1
    79   38   77 1
    80   39   78 1
    81   39   79 1
    82   40   80 1
    83   40   81 1
    84   41   82 1
    85   42   83 1
    86   42   84 1
    87   42   85 1
    88   43   86 1
    89   44   87 1
@<TRIPOS>PROPERTY_DATA
  Total_Score	| 6.5648
  Crash		| -4.7214
  Polar		| 3.7345
  FragIndex	| 1
  FragRMSD	| 0.971

