@<TRIPOS>MOLECULE
BindingDB_50209559
 86 90 0 0 0
SMALL
NO_CHARGES


@<TRIPOS>ATOM
1    C        24.2752   -9.5107    1.4508  C     
2    C        24.5740   -9.1316   -0.0381  C     
3    S        26.2328   -9.7865   -0.3336  S     
4    C        26.6853   -9.4186    1.3696  C     
5    N        25.5060   -9.2924    2.1853  N     
6    C        19.5470  -12.8784    5.3063  C     
7    C        22.2717  -12.1240    5.2073  C     
8    C        21.6061  -12.2306    6.4446  C     
9    C        20.2471  -12.6015    6.4940  C     
10   C        21.5561  -12.3804    4.0171  C     
11   C        20.2142  -12.7588    4.0717  C     
12   C        19.6680  -13.0451    2.7499  C     
13   C        20.8225  -12.7000    1.7720  C     
14   C        22.0703  -12.3755    2.6459  C     
15   C        23.7892  -10.8763    1.6848  C     
16   O        24.4488  -11.8101    1.2435  O     
17   C        23.5875   -9.7443   -1.0774  C     
18   C        24.6031   -7.5797   -0.2283  C     
19   C        25.5296   -9.0185    3.5048  C     
20   C        26.7289   -8.7192    4.3092  C     
21   O        24.4668   -8.9955    4.1183  O     
22   C        26.9314   -9.6472    5.5587  C     
23   C        26.1275   -9.2104    6.8227  C     
24   C        26.0351  -10.2619    7.8850  C     
25   C        27.0873  -10.4737    8.8107  C     
26   C        26.9884  -11.4617    9.8097  C     
27   C        25.8292  -12.2526    9.9085  C     
28   C        24.7669  -12.0459    9.0072  C     
29   C        24.8714  -11.0618    8.0105  C     
30   C        29.2112  -10.5945    5.5196  C     
31   O        28.8930  -11.5861    4.8771  O     
32   C        30.6022  -10.3832    5.7956  C     
33   O        30.7786   -9.4638    6.9057  O     
34   C        32.1021   -9.2088    7.1919  C     
35   C        32.7338  -10.0069    8.1889  C     
36   C        34.1018   -9.7814    8.4800  C     
37   C        34.8156   -8.7608    7.8243  C     
38   C        34.1700   -7.9450    6.8710  C     
39   C        32.8086   -8.1547    6.5440  C     
40   O        20.4547  -11.6210    0.9076  O     
41   N        22.6599  -11.0971    2.3437  N     
42   O        26.7337   -7.3489    4.7009  O     
43   N        28.3334   -9.6521    5.8764  N     
44   C        31.9855  -11.0671    8.9238  C     
45   C        32.1467   -7.2546    5.5543  C     
46   H        23.5116   -8.8092    1.8001  H     
47   H        27.3207  -10.2278    1.7332  H     
48   H        27.2520   -8.4885    1.3597  H     
49   H        18.5701  -13.1689    5.3392  H     
50   H        23.2613  -11.8667    5.1728  H     
51   H        22.1119  -12.0582    7.3156  H     
52   H        19.7769  -12.6845    7.3998  H     
53   H        19.3975  -14.1033    2.6860  H     
54   H        18.7811  -12.4353    2.5646  H     
55   H        21.0368  -13.5651    1.1415  H     
56   H        22.7978  -13.1917    2.5563  H     
57   H        23.6276  -10.8353   -1.0715  H     
58   H        23.8310   -9.4087   -2.0864  H     
59   H        22.5658   -9.4392   -0.8474  H     
60   H        23.5950   -7.1756   -0.1322  H     
61   H        24.9919   -7.3183   -1.2124  H     
62   H        25.2279   -7.0944    0.5214  H     
63   H        27.6129   -8.8135    3.6848  H     
64   H        26.5888  -10.6415    5.2838  H     
65   H        26.5806   -8.3203    7.2623  H     
66   H        25.1139   -8.9239    6.5202  H     
67   H        27.9321   -9.9036    8.7679  H     
68   H        27.7599  -11.6053   10.4670  H     
69   H        25.7591  -12.9718   10.6274  H     
70   H        23.9234  -12.6239    9.0749  H     
71   H        24.0883  -10.9218    7.3735  H     
72   H        31.1368  -11.3325    5.9491  H     
73   H        31.0174   -9.9383    4.8923  H     
74   H        34.5954  -10.3625    9.1690  H     
75   H        35.8043   -8.6082    8.0395  H     
76   H        34.7098   -7.1981    6.4166  H     
77   H        19.5393  -11.8145    0.6174  H     
78   H        22.1707  -10.3141    2.6364  H     
79   H        26.6872   -6.8329    3.8702  H     
80   H        28.6742   -8.8743    6.3542  H     
81   H        31.1816  -10.6108    9.5030  H     
82   H        32.6314  -11.6261    9.6096  H     
83   H        31.5516  -11.7719    8.2149  H     
84   H        31.7493   -7.8168    4.6937  H     
85   H        32.8274   -6.5149    5.1402  H     
86   H        31.3032   -6.7431    6.0344  H     
@<TRIPOS>BOND
     1    1    2 1
     2    1    5 1
     3    1   15 1
     4    2    3 1
     5    2   17 1
     6    2   18 1
     7    3    4 1
     8    4    5 1
     9    5   19 am
    10    6    9 1
    11    6   11 2
    12    7    8 1
    13    7   10 2
    14    8    9 2
    15   10   11 1
    16   10   14 1
    17   11   12 1
    18   12   13 1
    19   13   14 1
    20   13   40 1
    21   14   41 1
    22   15   16 2
    23   15   41 am
    24   19   20 1
    25   19   21 2
    26   20   22 1
    27   20   42 1
    28   22   23 1
    29   22   43 1
    30   23   24 1
    31   24   25 2
    32   24   29 1
    33   25   26 1
    34   26   27 2
    35   27   28 1
    36   28   29 2
    37   30   31 2
    38   30   32 1
    39   30   43 am
    40   32   33 1
    41   33   34 1
    42   34   35 2
    43   34   39 1
    44   35   36 1
    45   35   44 1
    46   36   37 2
    47   37   38 1
    48   38   39 2
    49   39   45 1
    50    1   46 1
    51    4   47 1
    52    4   48 1
    53    6   49 1
    54    7   50 1
    55    8   51 1
    56    9   52 1
    57   12   53 1
    58   12   54 1
    59   13   55 1
    60   14   56 1
    61   17   57 1
    62   17   58 1
    63   17   59 1
    64   18   60 1
    65   18   61 1
    66   18   62 1
    67   20   63 1
    68   22   64 1
    69   23   65 1
    70   23   66 1
    71   25   67 1
    72   26   68 1
    73   27   69 1
    74   28   70 1
    75   29   71 1
    76   32   72 1
    77   32   73 1
    78   36   74 1
    79   37   75 1
    80   38   76 1
    81   40   77 1
    82   41   78 1
    83   42   79 1
    84   43   80 1
    85   44   81 1
    86   44   82 1
    87   44   83 1
    88   45   84 1
    89   45   85 1
    90   45   86 1
@<TRIPOS>PROPERTY_DATA
  Total_Score	| 12.5997
  Crash		| -2.3117
  Polar		| 5.4990
  FragIndex	| 1
  FragRMSD	| 0.216

