@<TRIPOS>MOLECULE
BindingDB_50173739
 82 84 0 0 0
SMALL
NO_CHARGES


@<TRIPOS>ATOM
1    C        23.7775  -10.9305    1.8213  C     
2    C        24.2619   -9.5911    1.5406  C     
3    N        22.6637  -11.1267    2.5194  N     
4    C        26.9123  -10.0253    3.4747  C     
5    C        25.7683   -9.5757    1.1115  C     
6    C        26.7885  -10.4061    1.9536  C     
7    C        22.0474  -12.3995    2.7592  C     
8    C        28.0648  -10.6606    4.1178  C     
9    C        21.4761  -12.4482    4.1061  C     
10   C        20.1330  -12.8228    4.1000  C     
11   C        20.8266  -12.7317    1.8351  C     
12   N        28.8828   -9.9286    4.8664  N     
13   C        19.6334  -13.0912    2.7564  C     
14   C        30.3264   -9.9018    6.6753  C     
15   N        33.3144   -9.0593    5.8265  N     
16   C        31.5424  -10.4130    7.2704  C     
17   N        29.9157  -10.3959    5.5165  N     
18   O        24.3395  -11.8918    1.3108  O     
19   C        24.3427   -8.4086   -1.5304  C     
20   C        25.8912   -9.1640    6.2929  C     
21   O        28.1527  -11.8811    4.1137  O     
22   C        23.9831   -9.5826   -2.0816  C     
23   C        25.9309   -9.1107    7.6339  C     
24   O        29.7093   -9.0234    7.2575  O     
25   C        32.7640   -9.4518    7.1700  C     
26   O        33.5458   -8.1875    3.0912  O     
27   O        23.3629   -9.0604    0.5468  O     
28   O        25.8272   -9.9563   -0.2799  O     
29   O        28.0814  -10.2537    1.3509  O     
30   O        25.6815  -10.3849    4.1519  O     
31   O        20.4638  -11.6603    0.9526  O     
32   Br       26.3375   -7.5564    8.5081  Br    
33   Br       24.9243  -10.3488   -3.4519  Br    
34   C        22.1443  -12.2163    5.3251  C     
35   C        23.7554   -7.9437   -0.2844  C     
36   C        25.5895  -10.3992    5.5957  C     
37   C        33.1066   -7.6272    5.4553  C     
38   C        32.9669   -9.9691    4.6885  C     
39   C        19.4174  -12.9414    5.3074  C     
40   C        33.7478   -9.5827    3.4026  C     
41   C        33.9065   -7.2999    4.1678  C     
42   C        21.4308  -12.2989    6.5358  C     
43   C        20.0666  -12.6570    6.5269  C     
44   H        24.1478   -8.9533    2.4197  H     
45   H        22.2180  -10.3450    2.8862  H     
46   H        27.0257   -8.9394    3.5291  H     
47   H        26.1093   -8.5337    1.1729  H     
48   H        26.5290  -11.4594    1.8901  H     
49   H        22.8065  -13.1871    2.6848  H     
50   H        21.0713  -13.5884    1.2014  H     
51   H        28.6673   -8.9901    4.9699  H     
52   H        19.3626  -14.1470    2.6616  H     
53   H        18.7590  -12.4720    2.5469  H     
54   H        34.3290   -9.1434    5.9384  H     
55   H        31.3438  -10.6211    8.3282  H     
56   H        31.8241  -11.3751    6.8209  H     
57   H        30.4193  -11.1237    5.1282  H     
58   H        25.0669   -7.8795   -1.9635  H     
59   H        26.0729   -8.3406    5.7713  H     
60   H        23.2569  -10.1198   -1.6748  H     
61   H        25.7496   -9.9166    8.1782  H     
62   H        33.5811   -9.9480    7.7035  H     
63   H        32.5378   -8.5557    7.7613  H     
64   H        26.7039   -9.6515   -0.5848  H     
65   H        28.1201  -10.9117    0.6205  H     
66   H        20.5478  -10.8341    1.4764  H     
67   H        23.1401  -12.0007    5.3332  H     
68   H        24.4557   -7.2881    0.2422  H     
69   H        22.8531   -7.3641   -0.5088  H     
70   H        26.2230  -11.2058    5.9769  H     
71   H        24.5554  -10.6529    5.8364  H     
72   H        32.0442   -7.4159    5.2890  H     
73   H        33.4686   -6.9718    6.2495  H     
74   H        33.2026  -11.0055    4.9500  H     
75   H        31.8937   -9.8940    4.4657  H     
76   H        18.4362  -13.2275    5.2989  H     
77   H        33.3722  -10.1794    2.5652  H     
78   H        34.8158   -9.7996    3.5169  H     
79   H        34.9813   -7.3705    4.3638  H     
80   H        33.6872   -6.2803    3.8625  H     
81   H        21.9061  -12.1152    7.4252  H     
82   H        19.5533  -12.7172    7.4086  H     
@<TRIPOS>BOND
     1    1    2 1
     2    1    3 am
     3    1   18 2
     4    2    5 1
     5    2   27 1
     6    7    3 1
     7    4    6 1
     8    4    8 1
     9    4   30 1
    10    5    6 1
    11    5   28 1
    12    6   29 1
    13    7    9 1
    14    7   11 1
    15    8   12 am
    16    8   21 2
    17    9   10 2
    18    9   34 1
    19   10   13 1
    20   10   39 1
    21   11   13 1
    22   11   31 1
    23   12   17 1
    24   14   16 1
    25   14   17 am
    26   14   24 2
    27   15   25 1
    28   15   37 1
    29   15   38 1
    30   16   25 1
    31   19   22 2
    32   19   35 1
    33   20   23 2
    34   20   36 1
    35   22   33 1
    36   23   32 1
    37   26   40 1
    38   26   41 1
    39   27   35 1
    40   30   36 1
    41   34   42 2
    42   37   41 1
    43   38   40 1
    44   39   43 2
    45   42   43 1
    46    2   44 1
    47    3   45 1
    48    4   46 1
    49    5   47 1
    50    6   48 1
    51    7   49 1
    52   11   50 1
    53   12   51 1
    54   13   52 1
    55   13   53 1
    56   15   54 1
    57   16   55 1
    58   16   56 1
    59   17   57 1
    60   19   58 1
    61   20   59 1
    62   22   60 1
    63   23   61 1
    64   25   62 1
    65   25   63 1
    66   28   64 1
    67   29   65 1
    68   31   66 1
    69   34   67 1
    70   35   68 1
    71   35   69 1
    72   36   70 1
    73   36   71 1
    74   37   72 1
    75   37   73 1
    76   38   74 1
    77   38   75 1
    78   39   76 1
    79   40   77 1
    80   40   78 1
    81   41   79 1
    82   41   80 1
    83   42   81 1
    84   43   82 1
@<TRIPOS>PROPERTY_DATA
  Total_Score	| 6.8961
  Crash		| -4.7504
  Polar		| 3.5037
  FragIndex	| 1
  FragRMSD	| 1.283

