@<TRIPOS>MOLECULE
BindingDB_17286
 75 79 0 0 0
SMALL
NO_CHARGES


@<TRIPOS>ATOM
1    C        34.6945   30.1662   16.2720  C     
2    C        35.0420   31.5284   16.4579  C     
3    C        34.2834   32.5025   15.7626  C     
4    C        33.2786   32.1025   14.8639  C     
5    C        33.6844   29.7383   15.3742  C     
6    C        32.9836   30.7435   14.6421  C     
7    C        31.8858   30.4449   13.6856  C     
8    C        31.6957   28.9520   13.3391  C     
9    C        31.9449   28.0600   14.5847  C     
10   C        33.4224   28.2810   15.0873  C     
11   C        33.3934   25.7900   15.9386  C     
12   C        33.7995   27.2683   16.2275  C     
13   C        31.6704   26.5515   14.2908  C     
14   C        30.2819   26.1463   13.7544  C     
15   C        30.1742   24.6333   14.0534  C     
16   C        31.4006   24.2219   14.9452  C     
17   C        30.9954   22.0117   16.1331  C     
18   C        32.4679   23.4235   14.1099  C     
19   C        32.0431   21.9532   13.8590  C     
20   O        30.8863   23.3568   15.9850  O     
21   C        31.7613   21.1574   15.1838  C     
22   C        30.9308   19.8788   14.8483  C     
23   C        33.0980   20.7243   15.8658  C     
24   C        31.8856   25.6199   15.5260  C     
25   C        30.9919   25.9955   16.7798  C     
26   O        30.3789   21.4699   17.2105  O     
27   O        34.5228   33.8541   15.8763  O     
28   C        33.5784   34.5521   16.7279  C     
29   C        33.1737   35.8857   16.0617  C     
30   O        32.8607   35.6514   14.6749  O     
31   C        32.3405   36.7849   13.9646  C     
32   C        36.1538   31.8821   17.2721  C     
33   O        36.6077   33.1582   17.3444  O     
34   O        36.8580   30.9260   17.9256  O     
35   N        37.9915   31.1503   18.6380  N     
36   H        35.2187   29.4700   16.7892  H     
37   H        32.7411   32.8224   14.3649  H     
38   H        30.9560   30.8186   14.1272  H     
39   H        32.0501   30.9901   12.7498  H     
40   H        30.6762   28.8111   12.9658  H     
41   H        32.3847   28.6736   12.5355  H     
42   H        31.2492   28.3962   15.3556  H     
43   H        34.0848   28.0301   14.2503  H     
44   H        34.0463   25.4537   15.1307  H     
45   H        33.6138   25.1679   16.8117  H     
46   H        34.8849   27.2639   16.3619  H     
47   H        33.3602   27.5948   17.1708  H     
48   H        32.3854   26.2682   13.5058  H     
49   H        29.4946   26.7029   14.2738  H     
50   H        30.1984   26.3449   12.6810  H     
51   H        29.2308   24.4456   14.5733  H     
52   H        30.1366   24.0790   13.1146  H     
53   H        32.6524   23.9134   13.1525  H     
54   H        33.4152   23.3840   14.6429  H     
55   H        31.1471   21.9563   13.2322  H     
56   H        32.8248   21.4510   13.2815  H     
57   H        30.7879   19.2528   15.7353  H     
58   H        31.4377   19.2752   14.0909  H     
59   H        29.9405   20.1471   14.4653  H     
60   H        33.6943   21.5913   16.1486  H     
61   H        33.6911   20.1097   15.1857  H     
62   H        32.9084   20.1399   16.7686  H     
63   H        31.2326   25.3432   17.6225  H     
64   H        29.9267   25.8814   16.5704  H     
65   H        31.1360   27.0184   17.1229  H     
66   H        32.6592   33.9863   16.9500  H     
67   H        34.0740   34.7669   17.6778  H     
68   H        32.3046   36.2991   16.5890  H     
69   H        34.0126   36.5867   16.1349  H     
70   H        31.3101   36.9714   14.2594  H     
71   H        32.3631   36.5572   12.9006  H     
72   H        32.9393   37.6787   14.1326  H     
73   H        38.7260   31.4885   18.0096  H     
74   H        38.2934   30.2771   19.0762  H     
75   H        37.8162   31.8449   19.3677  H     
@<TRIPOS>BOND
     1    1    2 1
     2    1    5 2
     3    2    3 2
     4    2   32 1
     5    3    4 1
     6    3   27 1
     7    4    6 2
     8    5    6 1
     9    5   10 1
    10    6    7 1
    11    7    8 1
    12    8    9 1
    13    9   10 1
    14    9   13 1
    15   10   12 1
    16   11   12 1
    17   11   24 1
    18   13   14 1
    19   13   24 1
    20   14   15 1
    21   15   16 1
    22   16   18 1
    23   16   20 1
    24   16   24 1
    25   17   20 1
    26   17   21 1
    27   17   26 2
    28   18   19 1
    29   19   21 1
    30   21   22 1
    31   21   23 1
    32   24   25 1
    33   27   28 1
    34   28   29 1
    35   29   30 1
    36   30   31 1
    37   32   33 2
    38   32   34 1
    39   34   35 1
    40    1   36 1
    41    4   37 1
    42    7   38 1
    43    7   39 1
    44    8   40 1
    45    8   41 1
    46    9   42 1
    47   10   43 1
    48   11   44 1
    49   11   45 1
    50   12   46 1
    51   12   47 1
    52   13   48 1
    53   14   49 1
    54   14   50 1
    55   15   51 1
    56   15   52 1
    57   18   53 1
    58   18   54 1
    59   19   55 1
    60   19   56 1
    61   22   57 1
    62   22   58 1
    63   22   59 1
    64   23   60 1
    65   23   61 1
    66   23   62 1
    67   25   63 1
    68   25   64 1
    69   25   65 1
    70   28   66 1
    71   28   67 1
    72   29   68 1
    73   29   69 1
    74   31   70 1
    75   31   71 1
    76   31   72 1
    77   35   73 1
    78   35   74 1
    79   35   75 1
@<TRIPOS>PROPERTY_DATA
  Total_Score	| 11.3366
  Crash		| -2.2701
  Polar		| 3.2772
  FragIndex	| 1
  FragRMSD	| 0.656

