@<TRIPOS>MOLECULE
BindingDB_50267369
 58 62 0 0 0
SMALL
NO_CHARGES


@<TRIPOS>ATOM
1    C        31.6365   24.2633   14.9407  C     
2    C        32.8381   23.3797   14.4388  C     
3    C        32.3811   21.9478   14.0492  C     
4    C        31.6861   21.1771   15.2269  C     
5    C        30.8316   22.1044   16.0273  C     
6    O        30.8414   23.4547   15.8431  O     
7    C        35.2288   31.3391   17.2917  C     
8    C        34.8107   32.3530   16.4214  C     
9    C        34.0591   32.0245   15.2840  C     
10   C        34.8901   30.0003   17.0285  C     
11   C        34.1094   29.6355   15.8987  C     
12   C        33.7167   30.6798   15.0052  C     
13   C        32.8864   30.4272   13.7960  C     
14   C        32.6833   28.9358   13.4271  C     
15   C        33.7960   28.1905   15.5798  C     
16   C        32.4956   28.0642   14.7004  C     
17   C        33.3647   25.7391   16.4194  C     
18   C        33.7583   27.1996   16.7993  C     
19   C        32.0189   25.6472   15.6180  C     
20   C        32.1909   26.5674   14.3649  C     
21   C        30.9531   26.2378   13.5109  C     
22   C        30.7304   24.7210   13.7380  C     
23   C        30.8448   26.0872   16.5874  C     
24   O        30.0215   21.6245   17.0025  O     
25   C        32.7555   20.5356   16.1695  C     
26   C        30.7928   20.0375   14.6448  C     
27   H        33.3357   23.8469   13.5860  H     
28   H        33.5762   23.2667   15.2322  H     
29   H        31.6993   22.0256   13.1992  H     
30   H        33.2504   21.3892   13.6932  H     
31   H        35.7919   31.5712   18.1138  H     
32   H        35.0624   33.3245   16.6071  H     
33   H        33.7686   32.7764   14.6536  H     
34   H        35.2412   29.2960   17.6776  H     
35   H        31.9048   30.8781   13.9717  H     
36   H        33.3329   30.9291   12.9319  H     
37   H        31.8106   28.8598   12.7732  H     
38   H        33.5532   28.5818   12.8637  H     
39   H        34.6385   27.8529   14.9649  H     
40   H        31.6466   28.4760   15.2494  H     
41   H        34.1902   25.3461   15.8227  H     
42   H        33.3024   25.1302   17.3263  H     
43   H        34.7519   27.1377   17.2531  H     
44   H        33.0804   27.5817   17.5650  H     
45   H        33.0551   26.2150   13.7865  H     
46   H        30.0838   26.8119   13.8488  H     
47   H        31.1220   26.4585   12.4521  H     
48   H        30.9734   24.1879   12.8159  H     
49   H        29.6723   24.5334   13.9479  H     
50   H        29.8662   25.9867   16.1142  H     
51   H        30.9282   27.1192   16.9233  H     
52   H        30.8374   25.4580   17.4820  H     
53   H        33.3632   19.8189   15.6114  H     
54   H        32.2794   20.0015   16.9972  H     
55   H        33.4217   21.2900   16.5941  H     
56   H        29.9825   20.4512   14.0381  H     
57   H        30.3483   19.4417   15.4464  H     
58   H        31.3862   19.3706   14.0159  H     
@<TRIPOS>BOND
     1    1    2 1
     2    1    6 1
     3    1   19 1
     4    1   22 1
     5    2    3 1
     6    3    4 1
     7    4    5 1
     8    4   25 1
     9    4   26 1
    10    5    6 1
    11    5   24 2
    12    7    8 2
    13    7   10 1
    14    8    9 1
    15    9   12 2
    16   10   11 2
    17   11   12 1
    18   11   15 1
    19   12   13 1
    20   13   14 1
    21   14   16 1
    22   15   16 1
    23   15   18 1
    24   16   20 1
    25   17   18 1
    26   17   19 1
    27   19   20 1
    28   19   23 1
    29   20   21 1
    30   21   22 1
    31    2   27 1
    32    2   28 1
    33    3   29 1
    34    3   30 1
    35    7   31 1
    36    8   32 1
    37    9   33 1
    38   10   34 1
    39   13   35 1
    40   13   36 1
    41   14   37 1
    42   14   38 1
    43   15   39 1
    44   16   40 1
    45   17   41 1
    46   17   42 1
    47   18   43 1
    48   18   44 1
    49   20   45 1
    50   21   46 1
    51   21   47 1
    52   22   48 1
    53   22   49 1
    54   23   50 1
    55   23   51 1
    56   23   52 1
    57   25   53 1
    58   25   54 1
    59   25   55 1
    60   26   56 1
    61   26   57 1
    62   26   58 1
@<TRIPOS>PROPERTY_DATA
  Total_Score	| 10.1136
  Crash		| -0.4970
  Polar		| 1.0576
  FragIndex	| 1
  FragRMSD	| 0.492

