@<TRIPOS>MOLECULE
BindingDB_17287
 70 74 0 0 0
SMALL
NO_CHARGES


@<TRIPOS>ATOM
1    C        34.2849   30.1271   16.7977  C     
2    C        34.4462   31.5241   16.9593  C     
3    C        34.1450   32.3925   15.8883  C     
4    C        33.7088   31.8519   14.6719  C     
5    C        33.8064   29.5737   15.5824  C     
6    C        33.5378   30.4651   14.5065  C     
7    C        33.0000   29.9293   13.2272  C     
8    C        31.8441   28.9265   13.4804  C     
9    C        32.0540   27.9935   14.7329  C     
10   C        33.4975   28.1151   15.3632  C     
11   C        33.2691   25.6766   16.2533  C     
12   C        33.6773   27.1501   16.5810  C     
13   C        31.7505   26.4895   14.4223  C     
14   C        30.4145   26.1313   13.7504  C     
15   C        30.3015   24.6023   13.9476  C     
16   C        31.3728   24.1599   15.0137  C     
17   C        30.6940   21.9581   16.0791  C     
18   C        32.5328   23.3229   14.3637  C     
19   C        32.0696   21.8952   13.9648  C     
20   O        30.6994   23.3134   15.9731  O     
21   C        31.4657   21.0731   15.1634  C     
22   C        30.5155   19.9692   14.5994  C     
23   C        32.6050   20.3929   15.9930  C     
24   C        31.8138   25.5452   15.6661  C     
25   C        30.7919   25.9084   16.8204  C     
26   O        29.9816   21.4386   17.1060  O     
27   O        34.2156   33.7603   15.9490  O     
28   C        33.0302   34.3871   16.4963  C     
29   C        32.8835   35.8122   15.9123  C     
30   O        32.6454   35.7161   14.4938  O     
31   C        32.1499   36.9203   13.8809  C     
32   C        34.8135   32.0005   18.1138  C     
33   N        35.1151   32.4286   19.1370  N     
34   H        34.4822   29.5111   17.5870  H     
35   H        33.4759   32.4860   13.9076  H     
36   H        32.6504   30.7204   12.5565  H     
37   H        33.7986   29.3965   12.7147  H     
38   H        30.9147   29.4923   13.6123  H     
39   H        31.7267   28.3427   12.5646  H     
40   H        31.3421   28.3375   15.4856  H     
41   H        34.2182   27.7717   14.6090  H     
42   H        34.0041   25.3101   15.5301  H     
43   H        33.3664   25.0592   17.1527  H     
44   H        34.7285   27.1470   16.8829  H     
45   H        33.0935   27.5096   17.4286  H     
46   H        32.5304   26.1864   13.7103  H     
47   H        29.5864   26.6534   14.2397  H     
48   H        30.4096   26.3884   12.6895  H     
49   H        29.2846   24.3598   14.2768  H     
50   H        30.4532   24.1135   12.9832  H     
51   H        32.9332   23.8335   13.4872  H     
52   H        33.3469   23.1968   15.0776  H     
53   H        31.3287   21.9891   13.1671  H     
54   H        32.9202   21.3609   13.5291  H     
55   H        30.1331   19.3290   15.3975  H     
56   H        31.0464   19.3383   13.8848  H     
57   H        29.6617   20.4198   14.0873  H     
58   H        33.2733   21.1394   16.4273  H     
59   H        33.2027   19.7311   15.3619  H     
60   H        32.1933   19.7957   16.8098  H     
61   H        30.9418   25.2494   17.6775  H     
62   H        29.7557   25.7926   16.5023  H     
63   H        30.8961   26.9273   17.1855  H     
64   H        32.1032   33.8441   16.2875  H     
65   H        33.1410   34.4496   17.5809  H     
66   H        32.0415   36.2909   16.4279  H     
67   H        33.7873   36.3864   16.1065  H     
68   H        31.1458   37.1504   14.2589  H     
69   H        32.0850   36.7509   12.8037  H     
70   H        32.8158   37.7701   14.0637  H     
@<TRIPOS>BOND
     1    1    2 1
     2    1    5 2
     3    2    3 2
     4    2   32 1
     5    3    4 1
     6    3   27 1
     7    4    6 2
     8    5    6 1
     9    5   10 1
    10    6    7 1
    11    7    8 1
    12    8    9 1
    13    9   10 1
    14    9   13 1
    15   10   12 1
    16   11   12 1
    17   11   24 1
    18   13   14 1
    19   13   24 1
    20   14   15 1
    21   15   16 1
    22   16   18 1
    23   16   20 1
    24   16   24 1
    25   17   20 1
    26   17   21 1
    27   17   26 2
    28   18   19 1
    29   19   21 1
    30   21   22 1
    31   21   23 1
    32   24   25 1
    33   27   28 1
    34   28   29 1
    35   29   30 1
    36   30   31 1
    37   32   33 3
    38    1   34 1
    39    4   35 1
    40    7   36 1
    41    7   37 1
    42    8   38 1
    43    8   39 1
    44    9   40 1
    45   10   41 1
    46   11   42 1
    47   11   43 1
    48   12   44 1
    49   12   45 1
    50   13   46 1
    51   14   47 1
    52   14   48 1
    53   15   49 1
    54   15   50 1
    55   18   51 1
    56   18   52 1
    57   19   53 1
    58   19   54 1
    59   22   55 1
    60   22   56 1
    61   22   57 1
    62   23   58 1
    63   23   59 1
    64   23   60 1
    65   25   61 1
    66   25   62 1
    67   25   63 1
    68   28   64 1
    69   28   65 1
    70   29   66 1
    71   29   67 1
    72   31   68 1
    73   31   69 1
    74   31   70 1
@<TRIPOS>PROPERTY_DATA
  Total_Score	| 12.1832
  Crash		| -1.4191
  Polar		| 2.9317
  FragIndex	| 1
  FragRMSD	| 0.677

