@<TRIPOS>MOLECULE
BindingDB_14010
 55 60 0 0 0
SMALL
NO_CHARGES


@<TRIPOS>ATOM
1    C        17.8187  136.4260   -3.0397  C     
2    C        16.6893  136.6066   -1.0602  C     
3    C        18.1210  137.1340   -0.8377  C     
4    N        16.6402  136.3150   -2.4513  N     
5    O        18.0149  136.2354   -4.2340  O     
6    O        16.7955  131.2534   -3.6269  O     
7    C        18.8825  136.7835   -2.1374  C     
8    N        19.8494  135.6814   -1.8983  N     
9    C        20.7317  135.3021   -3.0250  C     
10   C        21.9080  134.5741   -2.5111  C     
11   C        23.4578  133.1195   -2.0687  C     
12   C        22.8854  135.1571   -1.7094  C     
13   C        17.9573  131.2793   -2.8922  C     
14   C        19.1219  131.8200   -3.4788  C     
15   C        19.2652  130.6721   -0.9184  C     
16   C        20.4224  131.2038   -1.5197  C     
17   C        20.3675  131.7843   -2.8082  C     
18   C        21.6116  132.2675   -3.4706  C     
19   N        22.2859  133.2902   -2.7154  N     
20   N        23.8320  134.2473   -1.4489  N     
21   C        18.0350  130.6856   -1.6107  C     
22   C        16.9868  130.1139   -1.0884  C     
23   N        16.0490  129.6213   -0.6413  N     
24   C        15.8802  132.2498   -3.5741  C     
25   C        16.1338  133.5205   -3.1719  C     
26   C        13.7240  132.8925   -4.3505  C     
27   C        14.6546  131.9448   -4.1107  C     
28   C        13.9862  134.2306   -4.0418  C     
29   C        15.2163  134.5629   -3.4029  C     
30   C        15.4878  135.9213   -3.0750  C     
31   C        14.5535  136.9249   -3.4256  C     
32   C        13.3596  136.5929   -4.0843  C     
33   C        13.0661  135.2512   -4.3767  C     
34   H        16.5121  135.6952   -0.4818  H     
35   H        15.9502  137.3661   -0.7835  H     
36   H        18.1000  138.2201   -0.6993  H     
37   H        18.5730  136.6800    0.0484  H     
38   H        19.4081  137.6721   -2.5034  H     
39   H        20.4461  135.9721   -1.1207  H     
40   H        19.3286  134.8530   -1.6019  H     
41   H        20.1653  134.6858   -3.7234  H     
42   H        21.0829  136.1887   -3.5625  H     
43   H        23.9959  132.2514   -2.0338  H     
44   H        22.8924  136.1223   -1.3734  H     
45   H        19.0606  132.2181   -4.4189  H     
46   H        19.3419  130.2525    0.0141  H     
47   H        21.3136  131.1476   -1.0171  H     
48   H        22.2678  131.3981   -3.5991  H     
49   H        21.4110  132.6528   -4.4729  H     
50   H        17.0119  133.7326   -2.7672  H     
51   H        12.8597  132.6283   -4.7656  H     
52   H        14.4459  131.0016   -4.3486  H     
53   H        14.7529  137.9087   -3.2234  H     
54   H        12.7091  137.3329   -4.3669  H     
55   H        12.1939  135.0318   -4.8645  H     
@<TRIPOS>BOND
     1    1    4 1
     2    1    5 2
     3    1    7 1
     4    2    3 1
     5    2    4 1
     6    3    7 1
     7    4   30 1
     8    6   13 1
     9    6   24 1
    10    7    8 1
    11    8    9 1
    12    9   10 1
    13   10   12 2
    14   10   19 1
    15   11   19 1
    16   11   20 2
    17   12   20 1
    18   13   14 1
    19   13   21 2
    20   14   17 2
    21   15   16 2
    22   15   21 1
    23   16   17 1
    24   17   18 1
    25   18   19 1
    26   21   22 1
    27   22   23 3
    28   24   25 2
    29   24   27 1
    30   25   29 1
    31   26   27 2
    32   26   28 1
    33   28   29 1
    34   28   33 2
    35   29   30 2
    36   30   31 1
    37   31   32 2
    38   32   33 1
    39    2   34 1
    40    2   35 1
    41    3   36 1
    42    3   37 1
    43    7   38 1
    44    8   39 1
    45    8   40 1
    46    9   41 1
    47    9   42 1
    48   11   43 1
    49   12   44 1
    50   14   45 1
    51   15   46 1
    52   16   47 1
    53   18   48 1
    54   18   49 1
    55   25   50 1
    56   26   51 1
    57   27   52 1
    58   31   53 1
    59   32   54 1
    60   33   55 1
@<TRIPOS>PROPERTY_DATA
  Total_Score	| 0.5338
  Crash		| -1.0656
  Polar		| 0.0073
  FragIndex	| 1
  FragRMSD	| 0.877

