@<TRIPOS>MOLECULE
BindingDB_27719
 30 32 0 0 0
SMALL
NO_CHARGES


@<TRIPOS>ATOM
1    C        12.3857   -3.9725   44.4786  C     
2    C        12.9317   -4.5275   45.6712  C     
3    C        12.2343   -4.5054   46.8923  C     
4    C        10.9731   -3.8910   46.9734  C     
5    C        10.4236   -3.2896   45.8276  C     
6    C        11.1185   -3.3302   44.5924  C     
7    N        10.4831   -2.7129   43.5603  N     
8    N         9.2296   -2.6403   45.8740  N     
9    C         8.6802   -2.0591   44.8187  C     
10   C         9.3115   -2.0898   43.5934  C     
11   C        13.0941   -4.0918   43.2663  C     
12   N        12.6540   -3.7193   42.0804  N     
13   O        14.1879   -4.6331   43.2252  O     
14   C         8.7814   -1.5464   42.4012  C     
15   C         9.1236   -0.7390   40.0872  C     
16   C         9.6312   -1.2376   41.3017  C     
17   C         7.3892   -1.3232   42.2179  C     
18   C         6.8753   -0.8255   41.0057  C     
19   C         7.7400   -0.5360   39.9353  C     
20   H        13.8487   -4.9838   45.6677  H     
21   H        12.6403   -4.9366   47.7287  H     
22   H        10.4688   -3.8690   47.8617  H     
23   H         7.8395   -1.5519   44.9636  H     
24   H        13.1922   -3.8801   41.2853  H     
25   H        11.7793   -3.3163   41.9729  H     
26   H         9.7570   -0.5274   39.3140  H     
27   H        10.6416   -1.3664   41.3696  H     
28   H         6.7228   -1.5556   42.9533  H     
29   H         5.8737   -0.6792   40.8938  H     
30   H         7.3657   -0.1855   39.0534  H     
@<TRIPOS>BOND
     1    1    2 1
     2    1    6 2
     3    1   11 1
     4    2    3 2
     5    3    4 1
     6    4    5 2
     7    5    6 1
     8    5    8 1
     9    6    7 1
    10    7   10 2
    11    8    9 2
    12    9   10 1
    13   10   14 1
    14   11   12 am
    15   11   13 2
    16   14   16 1
    17   14   17 2
    18   15   16 2
    19   15   19 1
    20   17   18 1
    21   18   19 2
    22    2   20 1
    23    3   21 1
    24    4   22 1
    25    9   23 1
    26   12   24 1
    27   12   25 1
    28   15   26 1
    29   16   27 1
    30   17   28 1
    31   18   29 1
    32   19   30 1
@<TRIPOS>PROPERTY_DATA
  Total_Score	| 6.9777
  Crash		| -0.3964
  Polar		| 3.3847
  FragIndex	| 1
  FragRMSD	| 0.522

