@<TRIPOS>MOLECULE
BindingDB_27721
 31 33 0 0 0
SMALL
NO_CHARGES


@<TRIPOS>ATOM
1    C        12.4405   -3.9359   44.5581  C     
2    C        12.9724   -4.4575   45.7668  C     
3    C        12.2287   -4.4659   46.9596  C     
4    C        10.9419   -3.9049   46.9878  C     
5    C        10.4149   -3.3177   45.8286  C     
6    C        11.1542   -3.3278   44.6249  C     
7    N        10.5384   -2.7256   43.5565  N     
8    N         9.1986   -2.7014   45.8304  N     
9    C         8.6776   -2.1245   44.7543  C     
10   C         9.3437   -2.1277   43.5491  C     
11   C        13.1768   -4.0511   43.3673  C     
12   N        12.7117   -3.7221   42.1755  N     
13   O        14.2979   -4.5570   43.3564  O     
14   C         8.8497   -1.6037   42.3270  C     
15   C         9.3001   -0.9219   39.9874  C     
16   C         9.7404   -1.3996   41.2320  C     
17   C         7.4804   -1.2795   42.1007  C     
18   C         7.0306   -0.7995   40.8508  C     
19   C         7.9409   -0.6233   39.7902  C     
20   C         7.5522   -0.1984   38.6254  C     
21   N         7.2358    0.1660   37.5851  N     
22   H        13.9078   -4.8803   45.7876  H     
23   H        12.6175   -4.8998   47.8007  H     
24   H        10.3932   -3.9263   47.8487  H     
25   H         7.7965   -1.6813   44.8608  H     
26   H        13.2609   -3.8190   41.3872  H     
27   H        11.8022   -3.4010   42.0759  H     
28   H         9.9821   -0.8108   39.2333  H     
29   H        10.7372   -1.6031   41.3142  H     
30   H         6.7784   -1.3874   42.8391  H     
31   H         6.0348   -0.5774   40.7278  H     
@<TRIPOS>BOND
     1    1    2 1
     2    1    6 2
     3    1   11 1
     4    2    3 2
     5    3    4 1
     6    4    5 2
     7    5    6 1
     8    5    8 1
     9    6    7 1
    10    7   10 2
    11    8    9 2
    12    9   10 1
    13   10   14 1
    14   11   12 am
    15   11   13 2
    16   14   16 1
    17   14   17 2
    18   15   16 2
    19   15   19 1
    20   17   18 1
    21   18   19 2
    22   19   20 1
    23   20   21 3
    24    2   22 1
    25    3   23 1
    26    4   24 1
    27    9   25 1
    28   12   26 1
    29   12   27 1
    30   15   28 1
    31   16   29 1
    32   17   30 1
    33   18   31 1
@<TRIPOS>PROPERTY_DATA
  Total_Score	| 6.9850
  Crash		| -0.4617
  Polar		| 3.3187
  FragIndex	| 1
  FragRMSD	| 0.455

