@<TRIPOS>MOLECULE
BindingDB_50093368
 29 31 0 0 0
SMALL
NO_CHARGES


@<TRIPOS>ATOM
1    N        10.9886   -2.5737   43.1923  N     
2    C         9.7076   -2.2201   43.4263  C     
3    C        11.4825   -3.1185   44.3081  C     
4    N         9.3995   -2.5344   44.7023  N     
5    C        12.7629   -3.6530   44.5669  C     
6    C        10.4691   -3.1196   45.2596  C     
7    C        13.7689   -3.5973   43.6035  C     
8    C         8.8877   -1.5983   42.4531  C     
9    C         9.2997   -1.5373   41.0945  C     
10   O        14.6649   -4.4267   43.5975  O     
11   N        13.8114   -2.6949   42.6480  N     
12   C         8.5115   -0.8912   40.1270  C     
13   C        12.9613   -4.2491   45.8398  C     
14   Cl        9.0161   -0.8589   38.5096  Cl    
15   C        10.6805   -3.6795   46.5263  C     
16   C         7.6590   -0.9849   42.8135  C     
17   C        11.9352   -4.2563   46.8114  C     
18   C         6.8782   -0.3289   41.8461  C     
19   C         7.2999   -0.2765   40.5036  C     
20   H         8.5528   -2.3746   45.1444  H     
21   H        10.1744   -1.9714   40.7948  H     
22   H        14.5301   -2.7092   42.0022  H     
23   H        13.1334   -2.0063   42.5832  H     
24   H        13.8618   -4.6661   46.0807  H     
25   H         9.9345   -3.6742   47.2210  H     
26   H         7.3284   -0.9958   43.7806  H     
27   H        12.1145   -4.6816   47.7226  H     
28   H         5.9946    0.1107   42.1237  H     
29   H         6.7167    0.1941   39.8100  H     
@<TRIPOS>BOND
     1    1    2 2
     2    1    3 1
     3    2    4 1
     4    2    8 1
     5    3    5 2
     6    3    6 1
     7    4    6 1
     8    5    7 1
     9    5   13 1
    10    6   15 2
    11    7   10 2
    12    7   11 am
    13    8    9 1
    14    8   16 2
    15    9   12 2
    16   12   14 1
    17   12   19 1
    18   13   17 2
    19   15   17 1
    20   16   18 1
    21   18   19 2
    22    4   20 1
    23    9   21 1
    24   11   22 1
    25   11   23 1
    26   13   24 1
    27   15   25 1
    28   16   26 1
    29   17   27 1
    30   18   28 1
    31   19   29 1
@<TRIPOS>PROPERTY_DATA
  Total_Score	| 4.7775
  Crash		| -0.5917
  Polar		| 1.9156
  FragIndex	| 1
  FragRMSD	| 0.658

