@<TRIPOS>MOLECULE
BindingDB_27724
 32 34 0 0 0
SMALL
NO_CHARGES


@<TRIPOS>ATOM
1    C        12.3550   -4.0254   44.4421  C     
2    C        12.8816   -4.6118   45.6277  C     
3    C        12.2094   -4.5396   46.8600  C     
4    C        10.9797   -3.8740   46.9535  C     
5    C        10.4285   -3.2829   45.8072  C     
6    C        11.1011   -3.3527   44.5589  C     
7    N        10.4545   -2.7397   43.5290  N     
8    N         9.2397   -2.6325   45.8677  N     
9    C         8.6783   -2.0608   44.8147  C     
10   C         9.2856   -2.0973   43.5748  C     
11   C        13.0856   -4.1383   43.2439  C     
12   N        12.7241   -3.6467   42.0811  N     
13   O        14.1560   -4.7299   43.2021  O     
14   C         8.7667   -1.5200   42.3893  C     
15   C         8.9965   -1.0688   39.9637  C     
16   C         9.4792   -1.6244   41.1609  C     
17   C         7.5306   -0.8146   42.3381  C     
18   C         7.0416   -0.2543   41.1427  C     
19   C         7.7733   -0.3795   39.9498  C     
20   N         7.3102    0.1528   38.8049  N     
21   H        13.7756   -5.1089   45.6137  H     
22   H        12.6172   -4.9732   47.6908  H     
23   H        10.4936   -3.8227   47.8514  H     
24   H         7.8110   -1.6129   44.9679  H     
25   H        13.2931   -3.7742   41.3056  H     
26   H        11.8981   -3.1567   41.9798  H     
27   H         9.5429   -1.1702   39.1042  H     
28   H        10.3722   -2.1157   41.1108  H     
29   H         6.9531   -0.6887   43.1690  H     
30   H         6.1483    0.2460   41.1471  H     
31   H         6.4661    0.6279   38.7960  H     
32   H         7.8206    0.0616   37.9848  H     
@<TRIPOS>BOND
     1    1    2 1
     2    1    6 2
     3    1   11 1
     4    2    3 2
     5    3    4 1
     6    4    5 2
     7    5    6 1
     8    5    8 1
     9    6    7 1
    10    7   10 2
    11    8    9 2
    12    9   10 1
    13   10   14 1
    14   11   12 am
    15   11   13 2
    16   14   16 1
    17   14   17 2
    18   15   16 2
    19   15   19 1
    20   17   18 1
    21   18   19 2
    22   19   20 1
    23    2   21 1
    24    3   22 1
    25    4   23 1
    26    9   24 1
    27   12   25 1
    28   12   26 1
    29   15   27 1
    30   16   28 1
    31   17   29 1
    32   18   30 1
    33   20   31 1
    34   20   32 1
@<TRIPOS>PROPERTY_DATA
  Total_Score	| 6.8516
  Crash		| -0.5420
  Polar		| 3.3290
  FragIndex	| 1
  FragRMSD	| 0.453

