@<TRIPOS>MOLECULE
BindingDB_27722
 33 35 0 0 0
SMALL
NO_CHARGES


@<TRIPOS>ATOM
1    C        12.4458   -3.9749   44.5605  C     
2    C        12.9610   -4.5395   45.7536  C     
3    C        12.2153   -4.5730   46.9453  C     
4    C        10.9285   -4.0049   46.9790  C     
5    C        10.4132   -3.3720   45.8339  C     
6    C        11.1808   -3.3325   44.6424  C     
7    N        10.6022   -2.6961   43.5889  N     
8    N         9.2184   -2.7367   45.8400  N     
9    C         8.7212   -2.1104   44.7769  C     
10   C         9.4230   -2.0721   43.5893  C     
11   C        13.1921   -4.0533   43.3634  C     
12   N        12.7333   -3.6854   42.1737  N     
13   O        14.3180   -4.5598   43.3372  O     
14   C         8.9991   -1.4747   42.3948  C     
15   C         7.1960   -0.6403   40.9315  C     
16   C         7.6263   -1.2246   42.1399  C     
17   C         9.9208   -1.1314   41.3606  C     
18   C         9.4927   -0.5480   40.1516  C     
19   C         8.1202   -0.2796   39.9193  C     
20   C         7.6360    0.3959   38.6890  C     
21   F         8.6160    0.6833   37.7607  F     
22   F         6.7021   -0.3889   38.0499  F     
23   F         7.0508    1.5940   39.0330  F     
24   H        13.9000   -4.9603   45.7763  H     
25   H        12.6008   -5.0098   47.7748  H     
26   H        10.3767   -4.0485   47.8372  H     
27   H         7.8679   -1.6196   44.8808  H     
28   H        13.2933   -3.7817   41.3959  H     
29   H        11.8249   -3.3642   42.0799  H     
30   H         6.1982   -0.4723   40.7946  H     
31   H         6.9146   -1.4914   42.8234  H     
32   H        10.9160   -1.2820   41.4790  H     
33   H        10.1857   -0.3026   39.4490  H     
@<TRIPOS>BOND
     1    1    2 1
     2    1    6 2
     3    1   11 1
     4    2    3 2
     5    3    4 1
     6    4    5 2
     7    5    6 1
     8    5    8 1
     9    6    7 1
    10    7   10 2
    11    8    9 2
    12    9   10 1
    13   10   14 1
    14   11   12 am
    15   11   13 2
    16   14   16 1
    17   14   17 2
    18   15   16 2
    19   15   19 1
    20   17   18 1
    21   18   19 2
    22   19   20 1
    23   20   21 1
    24   20   22 1
    25   20   23 1
    26    2   24 1
    27    3   25 1
    28    4   26 1
    29    9   27 1
    30   12   28 1
    31   12   29 1
    32   15   30 1
    33   16   31 1
    34   17   32 1
    35   18   33 1
@<TRIPOS>PROPERTY_DATA
  Total_Score	| 7.0307
  Crash		| -0.6260
  Polar		| 3.2842
  FragIndex	| 1
  FragRMSD	| 0.442

