@<TRIPOS>MOLECULE
BindingDB_50093372
 29 31 0 0 0
SMALL
NO_CHARGES


@<TRIPOS>ATOM
1    N        11.1330   -2.5787   43.1687  N     
2    C         9.8461   -2.2125   43.2972  C     
3    C        11.5438   -3.0999   44.3265  C     
4    N         9.4409   -2.5051   44.5534  N     
5    C        12.7994   -3.6484   44.6601  C     
6    C        10.4668   -3.0777   45.2074  C     
7    C        13.8477   -3.6447   43.7469  C     
8    C         9.1264   -1.6070   42.2365  C     
9    O        14.6743   -4.5381   43.7394  O     
10   C         9.6561   -1.6253   40.9176  C     
11   C         7.8929   -0.9479   42.4585  C     
12   N        13.9951   -2.7068   42.8348  N     
13   C        12.9130   -4.2276   45.9495  C     
14   C         7.7724   -0.3160   40.1022  C     
15   C         7.2235   -0.3014   41.4009  C     
16   C         8.9862   -0.9882   39.8611  C     
17   Cl        7.0038    0.4754   38.8227  Cl    
18   C        10.5951   -3.6303   46.4931  C     
19   C        11.8277   -4.2135   46.8554  C     
20   H         8.5533   -2.3549   44.9129  H     
21   H        10.5339   -2.1111   40.7048  H     
22   H         7.4864   -0.9054   43.3980  H     
23   H        14.7329   -2.7462   42.2075  H     
24   H        13.3831   -1.9572   42.8029  H     
25   H        13.7930   -4.6548   46.2454  H     
26   H         6.3471    0.1953   41.5862  H     
27   H         9.3881   -1.0178   38.9184  H     
28   H         9.8087   -3.6235   47.1454  H     
29   H        11.9395   -4.6307   47.7799  H     
@<TRIPOS>BOND
     1    1    2 2
     2    1    3 1
     3    2    4 1
     4    2    8 1
     5    3    5 2
     6    3    6 1
     7    4    6 1
     8    5    7 1
     9    5   13 1
    10    6   18 2
    11    7    9 2
    12    7   12 am
    13    8   10 2
    14    8   11 1
    15   10   16 1
    16   11   15 2
    17   13   19 2
    18   14   15 1
    19   14   16 2
    20   14   17 1
    21   18   19 1
    22    4   20 1
    23   10   21 1
    24   11   22 1
    25   12   23 1
    26   12   24 1
    27   13   25 1
    28   15   26 1
    29   16   27 1
    30   18   28 1
    31   19   29 1
@<TRIPOS>PROPERTY_DATA
  Total_Score	| 3.5726
  Crash		| -1.2233
  Polar		| 1.5490
  FragIndex	| 1
  FragRMSD	| 0.573

