@<TRIPOS>MOLECULE
BindingDB_50093369
 29 31 0 0 0
SMALL
NO_CHARGES


@<TRIPOS>ATOM
1    C         9.3744   -2.1756   43.6020  C     
2    N        10.5886   -2.6270   43.2425  N     
3    C        11.1850   -3.1964   44.2978  C     
4    N         9.2026   -2.4701   44.9087  N     
5    C        12.4540   -3.8165   44.4123  C     
6    C         8.4957   -1.5087   42.6994  C     
7    C        10.2997   -3.0968   45.3650  C     
8    C        13.3137   -3.9474   43.3144  C     
9    C         7.0792   -1.4964   42.8421  C     
10   O        14.3585   -4.5780   43.3932  O     
11   N        13.0371   -3.4673   42.1177  N     
12   C        12.7895   -4.3282   45.6964  C     
13   Cl        6.2455   -2.3195   44.0689  Cl    
14   C         9.0557   -0.8336   41.5803  C     
15   C        10.6343   -3.6264   46.6227  C     
16   C        11.8937   -4.2409   46.7845  C     
17   C         6.2770   -0.8120   41.9047  C     
18   C         8.2479   -0.1328   40.6683  C     
19   C         6.8578   -0.1179   40.8345  C     
20   H         8.4217   -2.2498   45.4444  H     
21   H        13.6072   -3.6502   41.3550  H     
22   H        12.2167   -2.9727   41.9663  H     
23   H        13.6955   -4.7798   45.8568  H     
24   H        10.0676   -0.8230   41.4220  H     
25   H         9.9803   -3.5690   47.4054  H     
26   H        12.1600   -4.6291   47.6956  H     
27   H         5.2559   -0.8118   41.9974  H     
28   H         8.6696    0.3737   39.8843  H     
29   H         6.2650    0.3970   40.1776  H     
@<TRIPOS>BOND
     1    1    2 2
     2    1    4 1
     3    1    6 1
     4    2    3 1
     5    3    5 2
     6    3    7 1
     7    4    7 1
     8    5    8 1
     9    5   12 1
    10    6    9 1
    11    6   14 2
    12    7   15 2
    13    8   10 2
    14    8   11 am
    15    9   13 1
    16    9   17 2
    17   12   16 2
    18   14   18 1
    19   15   16 1
    20   17   19 1
    21   18   19 2
    22    4   20 1
    23   11   21 1
    24   11   22 1
    25   12   23 1
    26   14   24 1
    27   15   25 1
    28   16   26 1
    29   17   27 1
    30   18   28 1
    31   19   29 1
@<TRIPOS>PROPERTY_DATA
  Total_Score	| 5.4121
  Crash		| -0.7058
  Polar		| 3.4422
  FragIndex	| 1
  FragRMSD	| 0.909

