@<TRIPOS>MOLECULE
BindingDB_27720
 30 32 0 0 0
SMALL
NO_CHARGES


@<TRIPOS>ATOM
1    C        12.4495   -3.8749   44.4953  C     
2    C        12.9932   -4.3986   45.7056  C     
3    C        12.2463   -4.4452   46.8982  C     
4    C        10.9331   -3.9590   46.9342  C     
5    C        10.3980   -3.3538   45.7885  C     
6    C        11.1444   -3.2970   44.5840  C     
7    N        10.5653   -2.6198   43.5570  N     
8    N         9.1493   -2.8226   45.8120  N     
9    C         8.6298   -2.1821   44.7683  C     
10   C         9.3543   -2.0626   43.6001  C     
11   C        13.1728   -3.9864   43.3023  C     
12   N        12.7008   -3.6149   42.1161  N     
13   O        14.2624   -4.5654   43.2445  O     
14   C         8.8875   -1.4614   42.4473  C     
15   C         9.3253   -0.4724   40.2245  C     
16   C         9.7856   -0.9552   41.4610  C     
17   C         7.4959   -1.4172   42.1441  C     
18   C         7.0308   -0.9529   40.9117  C     
19   C         7.9393   -0.4943   39.9310  C     
20   Cl        7.3755    0.0152   38.4245  Cl    
21   H        13.9448   -4.7767   45.7369  H     
22   H        12.6590   -4.8217   47.7509  H     
23   H        10.3794   -4.0032   47.7918  H     
24   H         7.7258   -1.7767   44.8611  H     
25   H        13.1990   -3.7858   41.3107  H     
26   H        11.8141   -3.2269   42.0323  H     
27   H         9.9889   -0.1431   39.5217  H     
28   H        10.7964   -0.9537   41.6232  H     
29   H         6.8084   -1.7558   42.8286  H     
30   H         6.0252   -0.9675   40.7156  H     
@<TRIPOS>BOND
     1    1    2 1
     2    1    6 2
     3    1   11 1
     4    2    3 2
     5    3    4 1
     6    4    5 2
     7    5    6 1
     8    5    8 1
     9    6    7 1
    10    7   10 2
    11    8    9 2
    12    9   10 1
    13   10   14 1
    14   11   12 am
    15   11   13 2
    16   14   16 1
    17   14   17 2
    18   15   16 2
    19   15   19 1
    20   17   18 1
    21   18   19 2
    22   19   20 1
    23    2   21 1
    24    3   22 1
    25    4   23 1
    26    9   24 1
    27   12   25 1
    28   12   26 1
    29   15   27 1
    30   16   28 1
    31   17   29 1
    32   18   30 1
@<TRIPOS>PROPERTY_DATA
  Total_Score	| 7.0986
  Crash		| -0.3389
  Polar		| 3.4406
  FragIndex	| 1
  FragRMSD	| 0.453

