@<TRIPOS>MOLECULE
BindingDB_50300019
 36 39 0 0 0
SMALL
NO_CHARGES


@<TRIPOS>ATOM
1    C        12.1317   -4.1342   46.2918  C     
2    C        10.8623   -3.8917   46.8681  C     
3    C         9.8318   -3.3033   46.1090  C     
4    C        12.4164   -3.7967   44.9409  C     
5    C        13.6670   -4.0106   44.3401  C     
6    N        14.6940   -4.4725   45.0180  N     
7    O        13.8921   -3.7803   43.1625  O     
8    C        11.3535   -3.1977   44.2176  C     
9    C        10.0977   -2.9642   44.7751  C     
10   N         9.3412   -2.3935   43.8278  N     
11   C        10.0905   -2.2489   42.7179  C     
12   N        11.3203   -2.7466   42.9584  N     
13   C         9.7050   -1.6938   41.4731  C     
14   C         8.3580   -1.3830   41.1890  C     
15   C         7.9886   -0.8718   39.9309  C     
16   C         8.9519   -0.6410   38.9203  C     
17   C        10.2990   -0.9451   39.2132  C     
18   C        10.6677   -1.4667   40.4626  C     
19   C         8.5630   -0.1392   37.6454  C     
20   C         9.3467    0.1716   36.5300  C     
21   N         8.5521    0.5838   35.5307  N     
22   C         7.2959    0.5424   35.9968  C     
23   N         7.3020    0.1172   37.2681  N     
24   H        12.8435   -4.5593   46.8864  H     
25   H        10.6844   -4.1375   47.8428  H     
26   H         8.9122   -3.1224   46.5193  H     
27   H        15.5735   -4.5474   44.6090  H     
28   H        14.5789   -4.7353   45.9410  H     
29   H         8.4150   -2.1247   43.9280  H     
30   H         7.6262   -1.5500   41.8830  H     
31   H         6.9969   -0.6792   39.7611  H     
32   H        11.0371   -0.8029   38.5160  H     
33   H        11.6565   -1.6817   40.6204  H     
34   H        10.3645    0.0998   36.4556  H     
35   H         6.4635    0.7848   35.4578  H     
36   H         6.5202    0.0000   37.8282  H     
@<TRIPOS>BOND
     1    1    2 2
     2    1    4 1
     3    2    3 1
     4    3    9 2
     5    4    5 1
     6    4    8 2
     7    5    6 am
     8    5    7 2
     9    8    9 1
    10    8   12 1
    11    9   10 1
    12   10   11 1
    13   11   12 2
    14   11   13 1
    15   13   14 2
    16   13   18 1
    17   14   15 1
    18   15   16 2
    19   16   17 1
    20   16   19 1
    21   17   18 2
    22   19   20 2
    23   19   23 1
    24   20   21 1
    25   21   22 2
    26   22   23 1
    27    1   24 1
    28    2   25 1
    29    3   26 1
    30    6   27 1
    31    6   28 1
    32   10   29 1
    33   14   30 1
    34   15   31 1
    35   17   32 1
    36   18   33 1
    37   20   34 1
    38   22   35 1
    39   23   36 1
@<TRIPOS>PROPERTY_DATA
  Total_Score	| 4.9291
  Crash		| -1.8267
  Polar		| 1.1917
  FragIndex	| 1
  FragRMSD	| 1.301

