@<TRIPOS>MOLECULE
BindingDB_50341859
 30 32 0 0 0
SMALL
NO_CHARGES


@<TRIPOS>ATOM
1    C        13.0941   -3.9688   45.5062  C     
2    C        12.6440   -3.3368   44.3312  C     
3    C        10.8127   -3.9762   46.3974  C     
4    C        12.1859   -4.2881   46.5371  C     
5    C        10.3660   -3.3136   45.2297  C     
6    C        11.2829   -3.0100   44.1931  C     
7    N        10.8000   -2.4022   43.0820  N     
8    C         9.4972   -2.0476   42.8774  C     
9    C         8.6089   -2.3444   43.9377  C     
10   N         9.0667   -2.9636   45.0516  N     
11   C         9.9171   -4.2952   47.3805  C     
12   N         9.1073   -5.3242   47.2382  N     
13   O         9.6797   -3.4751   48.2562  O     
14   C         9.1153   -1.4224   41.6419  C     
15   C        10.0363   -1.3448   40.5639  C     
16   C         9.6945   -0.7385   39.3403  C     
17   C         8.4128   -0.1935   39.1606  C     
18   C         7.4812   -0.2473   40.2120  C     
19   C         7.8322   -0.8507   41.4336  C     
20   Cl        7.9923    0.5289   37.6878  Cl    
21   H        14.0847   -4.2002   45.6128  H     
22   H        13.3073   -3.1169   43.5843  H     
23   H        12.5333   -4.7554   47.3798  H     
24   H         7.6086   -2.1430   43.8907  H     
25   H         8.4149   -5.4843   47.9140  H     
26   H         9.2187   -5.9454   46.5102  H     
27   H        10.9777   -1.7367   40.6433  H     
28   H        10.3832   -0.7026   38.5819  H     
29   H         6.5466    0.1544   40.0932  H     
30   H         7.1237   -0.8484   42.1668  H     
@<TRIPOS>BOND
     1    1    2 2
     2    1    4 1
     3    2    6 1
     4    3    4 2
     5    3    5 1
     6    3   11 1
     7    5    6 2
     8    5   10 1
     9    6    7 1
    10    7    8 2
    11    8    9 1
    12    8   14 1
    13    9   10 2
    14   11   12 am
    15   11   13 2
    16   14   15 2
    17   14   19 1
    18   15   16 1
    19   16   17 2
    20   17   18 1
    21   17   20 1
    22   18   19 2
    23    1   21 1
    24    2   22 1
    25    4   23 1
    26    9   24 1
    27   12   25 1
    28   12   26 1
    29   15   27 1
    30   16   28 1
    31   18   29 1
    32   19   30 1
@<TRIPOS>PROPERTY_DATA
  Total_Score	| 0.8209
  Crash		| -2.3105
  Polar		| 0.1283
  FragIndex	| 1
  FragRMSD	| 0.711

