@<TRIPOS>MOLECULE
BindingDB_27723
 34 36 0 0 0
SMALL
NO_CHARGES


@<TRIPOS>ATOM
1    C        12.4345   -3.9547   44.5121  C     
2    C        12.9765   -4.4872   45.7159  C     
3    C        12.2656   -4.4613   46.9311  C     
4    C        10.9916   -3.8739   46.9862  C     
5    C        10.4501   -3.2913   45.8328  C     
6    C        11.1528   -3.3379   44.6044  C     
7    N        10.5065   -2.7491   43.5583  N     
8    N         9.2489   -2.6565   45.8831  N     
9    C         8.6969   -2.0958   44.8181  C     
10   C         9.3196   -2.1439   43.5884  C     
11   C        13.1627   -4.0693   43.3112  C     
12   N        12.7351   -3.7047   42.1243  N     
13   O        14.2722   -4.5901   43.2933  O     
14   C         8.7756   -1.6527   42.3773  C     
15   C         6.8647   -0.9279   40.9774  C     
16   C         7.4036   -1.3110   42.2219  C     
17   C         9.5861   -1.5260   41.2159  C     
18   C         9.0542   -1.1521   39.9674  C     
19   C         7.6817   -0.8701   39.8355  C     
20   O         7.1713   -0.4952   38.6245  O     
21   C         6.8679   -1.5985   37.7534  C     
22   H        13.9054   -4.9171   45.7319  H     
23   H        12.6734   -4.8735   47.7773  H     
24   H        10.4780   -3.8549   47.8700  H     
25   H         7.8482   -1.6085   44.9559  H     
26   H        13.2890   -3.8552   41.3365  H     
27   H        11.8615   -3.3195   42.0111  H     
28   H         5.8717   -0.7009   40.9000  H     
29   H         6.7523   -1.3629   43.0066  H     
30   H        10.5878   -1.7046   41.2567  H     
31   H         9.6696   -1.0863   39.1546  H     
32   H         7.7459   -2.2230   37.5634  H     
33   H         6.5307   -1.1954   36.7998  H     
34   H         6.0678   -2.2161   38.1688  H     
@<TRIPOS>BOND
     1    1    2 1
     2    1    6 2
     3    1   11 1
     4    2    3 2
     5    3    4 1
     6    4    5 2
     7    5    6 1
     8    5    8 1
     9    6    7 1
    10    7   10 2
    11    8    9 2
    12    9   10 1
    13   10   14 1
    14   11   12 am
    15   11   13 2
    16   14   16 1
    17   14   17 2
    18   15   16 2
    19   15   19 1
    20   17   18 1
    21   18   19 2
    22   19   20 1
    23   20   21 1
    24    2   22 1
    25    3   23 1
    26    4   24 1
    27    9   25 1
    28   12   26 1
    29   12   27 1
    30   15   28 1
    31   16   29 1
    32   17   30 1
    33   18   31 1
    34   21   32 1
    35   21   33 1
    36   21   34 1
@<TRIPOS>PROPERTY_DATA
  Total_Score	| 7.5597
  Crash		| -0.6426
  Polar		| 3.3190
  FragIndex	| 1
  FragRMSD	| 0.518

