@<TRIPOS>MOLECULE
BindingDB_50306551
 45 48 0 0 0
SMALL
NO_CHARGES


@<TRIPOS>ATOM
1    N        33.0823   23.3060   28.8123  N     
2    C        32.3140   22.6407   27.8390  C     
3    C        32.7404   22.9028   26.3645  C     
4    O        32.6049   24.2968   26.0929  O     
5    C        31.8620   22.0558   25.3946  C     
6    O        32.3770   22.1196   24.0590  O     
7    C        31.8117   20.5647   25.8286  C     
8    O        30.9089   19.8611   24.9779  O     
9    C        31.3987   20.4390   27.3257  C     
10   O        32.3056   21.2221   28.1379  O     
11   C        31.4007   18.9802   27.8576  C     
12   O        32.5880   18.2762   27.5027  O     
13   N        32.5987   23.5939   29.9068  N     
14   N        33.4588   23.9121   30.7005  N     
15   C        34.6244   23.8630   30.1712  C     
16   C        34.3622   23.4021   28.9356  C     
17   C        35.8341   24.1591   30.8105  C     
18   C        36.9860   23.6886   30.2461  C     
19   C        38.2242   23.9368   30.7469  C     
20   C        38.3919   24.6619   31.8612  C     
21   C        35.9724   24.9321   32.0290  C     
22   C        37.2932   25.1755   32.5403  C     
23   C        37.5067   25.9280   33.7187  C     
24   C        36.4193   26.4495   34.4353  C     
25   C        35.1160   26.2260   33.9689  C     
26   C        34.9002   25.4961   32.7875  C     
27   H        31.2825   23.0110   27.9329  H     
28   H        33.7876   22.6208   26.2212  H     
29   H        32.7223   24.4035   25.1199  H     
30   H        30.8467   22.4630   25.3913  H     
31   H        32.2397   23.0431   23.7666  H     
32   H        32.8058   20.1359   25.6920  H     
33   H        30.9457   18.9216   25.2629  H     
34   H        30.3803   20.8188   27.4561  H     
35   H        31.3274   18.9916   28.9481  H     
36   H        30.5348   18.4283   27.4733  H     
37   H        32.4174   17.9400   26.5972  H     
38   H        35.0257   23.1902   28.2274  H     
39   H        36.9709   23.1232   29.4260  H     
40   H        39.0270   23.5696   30.2831  H     
41   H        39.3193   24.8175   32.1947  H     
42   H        38.4516   26.1025   34.0681  H     
43   H        36.5748   26.9882   35.2881  H     
44   H        34.3202   26.6119   34.4857  H     
45   H        33.9280   25.4110   32.5230  H     
@<TRIPOS>BOND
     1    2    1 1
     2    1   13 1
     3    1   16 1
     4    2    3 1
     5    2   10 1
     6    3    4 1
     7    3    5 1
     8    5    6 1
     9    5    7 1
    10    7    8 1
    11    7    9 1
    12    9   10 1
    13    9   11 1
    14   11   12 1
    15   13   14 2
    16   14   15 1
    17   15   16 2
    18   15   17 1
    19   17   18 2
    20   17   21 1
    21   18   19 1
    22   19   20 2
    23   20   22 1
    24   21   22 1
    25   21   26 2
    26   22   23 2
    27   23   24 1
    28   24   25 2
    29   25   26 1
    30    2   27 1
    31    3   28 1
    32    4   29 1
    33    5   30 1
    34    6   31 1
    35    7   32 1
    36    8   33 1
    37    9   34 1
    38   11   35 1
    39   11   36 1
    40   12   37 1
    41   16   38 1
    42   18   39 1
    43   19   40 1
    44   20   41 1
    45   23   42 1
    46   24   43 1
    47   25   44 1
    48   26   45 1
@<TRIPOS>PROPERTY_DATA
  Total_Score	| 12.9275
  Crash		| -1.0874
  Polar		| 9.1529
  FragIndex	| 1
  FragRMSD	| 0.176

