@<TRIPOS>MOLECULE
BindingDB_50306553
 35 36 0 0 0
SMALL
NO_CHARGES


@<TRIPOS>ATOM
1    N        33.1751   23.1072   28.8987  N     
2    C        32.3613   22.5261   27.9104  C     
3    C        32.8328   22.7850   26.4453  C     
4    O        32.8111   24.1870   26.1721  O     
5    C        31.9158   22.0352   25.4314  C     
6    O        32.4396   22.1156   24.1021  O     
7    C        31.7784   20.5340   25.8166  C     
8    O        30.8430   19.9033   24.9389  O     
9    C        31.3466   20.3949   27.3102  C     
10   O        32.2682   21.1078   28.1584  O     
11   C        31.2605   18.9308   27.8137  C     
12   O        32.4554   18.2124   27.5189  O     
13   N        32.7434   23.5746   29.9564  N     
14   N        33.6483   23.9442   30.6972  N     
15   C        34.7648   23.6975   30.1269  C     
16   C        34.4533   23.1145   28.9719  C     
17   C        36.0100   24.0418   30.6163  C     
18   O        36.1316   24.5955   31.8508  O     
19   O        37.1154   23.8339   29.8595  O     
20   N        37.3232   24.9585   32.3841  N     
21   H        31.3462   22.9512   28.0065  H     
22   H        33.8480   22.4230   26.3212  H     
23   H        32.8266   24.2602   25.1836  H     
24   H        30.9174   22.5005   25.4294  H     
25   H        32.2013   22.9994   23.7593  H     
26   H        32.7476   20.0519   25.6772  H     
27   H        30.8403   18.9623   25.1967  H     
28   H        30.3401   20.8231   27.4270  H     
29   H        31.1219   18.9335   28.8886  H     
30   H        30.4048   18.4177   27.3600  H     
31   H        32.2474   17.6944   26.6962  H     
32   H        35.1000   22.8197   28.2724  H     
33   H        37.9509   24.1510   32.3989  H     
34   H        37.1840   25.2946   33.3413  H     
35   H        37.7437   25.7017   31.8195  H     
@<TRIPOS>BOND
     1    2    1 1
     2    1   13 1
     3    1   16 1
     4    2    3 1
     5    2   10 1
     6    3    4 1
     7    3    5 1
     8    5    6 1
     9    5    7 1
    10    7    8 1
    11    7    9 1
    12    9   10 1
    13    9   11 1
    14   11   12 1
    15   13   14 2
    16   14   15 1
    17   15   16 2
    18   15   17 1
    19   17   18 1
    20   17   19 2
    21   18   20 1
    22    2   21 1
    23    3   22 1
    24    4   23 1
    25    5   24 1
    26    6   25 1
    27    7   26 1
    28    8   27 1
    29    9   28 1
    30   11   29 1
    31   11   30 1
    32   12   31 1
    33   16   32 1
    34   20   33 1
    35   20   34 1
    36   20   35 1
@<TRIPOS>PROPERTY_DATA
  Total_Score	| 11.1264
  Crash		| -0.8651
  Polar		| 9.0089
  FragIndex	| 1
  FragRMSD	| 0.103

