@<TRIPOS>MOLECULE
BindingDB_50306548
 33 34 0 0 0
SMALL
NO_CHARGES


@<TRIPOS>ATOM
1    N        33.2040   23.1661   28.8766  N     
2    C        32.3820   22.5709   27.8977  C     
3    C        32.8483   22.8108   26.4253  C     
4    O        32.8258   24.2136   26.1499  O     
5    C        31.9377   22.0402   25.4275  C     
6    O        32.4674   22.1077   24.1041  O     
7    C        31.8006   20.5491   25.8319  C     
8    O        30.8569   19.9144   24.9651  O     
9    C        31.3791   20.4195   27.3253  C     
10   O        32.3061   21.1482   28.1660  O     
11   C        31.3031   18.9621   27.8363  C     
12   O        32.4748   18.2182   27.5128  O     
13   N        32.7677   23.5827   29.9567  N     
14   N        33.6714   23.9278   30.7097  N     
15   C        34.7836   23.6998   30.1321  C     
16   C        34.4870   23.1919   28.9428  C     
17   C        36.1017   23.9420   30.6822  C     
18   O        36.9139   24.6820   29.7589  O     
19   H        31.3754   22.9879   27.9888  H     
20   H        33.8806   22.4527   26.3170  H     
21   H        32.6797   24.2879   25.1727  H     
22   H        30.9474   22.4970   25.4170  H     
23   H        32.2286   23.0004   23.7642  H     
24   H        32.7735   20.0631   25.6810  H     
25   H        30.8575   18.9590   25.2312  H     
26   H        30.3793   20.8437   27.4488  H     
27   H        31.1985   18.9686   28.9261  H     
28   H        30.4325   18.4491   27.4193  H     
29   H        32.2746   17.7959   26.6454  H     
30   H        35.1352   22.9032   28.2492  H     
31   H        36.0276   24.5167   31.6105  H     
32   H        36.6022   22.9844   30.9085  H     
33   H        37.1978   24.0215   29.0874  H     
@<TRIPOS>BOND
     1    2    1 1
     2    1   13 1
     3    1   16 1
     4    2    3 1
     5    2   10 1
     6    3    4 1
     7    3    5 1
     8    5    6 1
     9    5    7 1
    10    7    8 1
    11    7    9 1
    12    9   10 1
    13    9   11 1
    14   11   12 1
    15   13   14 2
    16   14   15 1
    17   15   16 2
    18   15   17 1
    19   17   18 1
    20    2   19 1
    21    3   20 1
    22    4   21 1
    23    5   22 1
    24    6   23 1
    25    7   24 1
    26    8   25 1
    27    9   26 1
    28   11   27 1
    29   11   28 1
    30   12   29 1
    31   16   30 1
    32   17   31 1
    33   17   32 1
    34   18   33 1
@<TRIPOS>PROPERTY_DATA
  Total_Score	| 10.8920
  Crash		| -0.9027
  Polar		| 9.1585
  FragIndex	| 1
  FragRMSD	| 0.114

