@<TRIPOS>MOLECULE
BindingDB_50306550
 45 48 0 0 0
SMALL
NO_CHARGES


@<TRIPOS>ATOM
1    N        33.1473   23.2038   28.8713  N     
2    C        32.3637   22.5983   27.8657  C     
3    C        32.8213   22.8483   26.3944  C     
4    O        32.7446   24.2482   26.1200  O     
5    C        31.9339   22.0454   25.4035  C     
6    O        32.4728   22.0877   24.0844  O     
7    C        31.8262   20.5560   25.8201  C     
8    O        30.8905   19.8925   24.9649  O     
9    C        31.4069   20.4226   27.3186  C     
10   O        32.3210   21.1792   28.1435  O     
11   C        31.3683   18.9640   27.8357  C     
12   O        32.5449   18.2401   27.4815  O     
13   N        32.6502   23.6261   29.9138  N     
14   N        33.5203   23.9714   30.7069  N     
15   C        34.6769   23.7548   30.2159  C     
16   C        34.4355   23.2179   29.0192  C     
17   C        35.8839   24.1239   30.8220  C     
18   C        37.1388   24.0356   30.1568  C     
19   C        38.3234   24.4964   30.7646  C     
20   C        35.8816   24.6698   32.1327  C     
21   C        37.0570   25.1555   32.7501  C     
22   C        38.2941   25.0829   32.0484  C     
23   C        39.4322   25.6328   32.6445  C     
24   C        39.3537   26.2169   33.8647  C     
25   C        38.1671   26.2741   34.5454  C     
26   C        37.0364   25.7547   34.0197  C     
27   H        31.3446   22.9988   27.9523  H     
28   H        33.8625   22.5187   26.2756  H     
29   H        32.7190   24.3280   25.1349  H     
30   H        30.9293   22.4830   25.3609  H     
31   H        32.2440   22.9663   23.7118  H     
32   H        32.8078   20.0886   25.6811  H     
33   H        30.8891   18.9501   25.2559  H     
34   H        30.4010   20.8263   27.4396  H     
35   H        31.2870   18.9640   28.9237  H     
36   H        30.4954   18.4361   27.4294  H     
37   H        32.3521   17.8594   26.5910  H     
38   H        35.1083   22.9129   28.3410  H     
39   H        37.2066   23.6524   29.2139  H     
40   H        39.2086   24.4371   30.2447  H     
41   H        34.9937   24.7457   32.6563  H     
42   H        40.3088   25.5979   32.1782  H     
43   H        40.1699   26.6217   34.2668  H     
44   H        38.1358   26.7140   35.4369  H     
45   H        36.1871   25.8187   34.5309  H     
@<TRIPOS>BOND
     1    2    1 1
     2    1   13 1
     3    1   16 1
     4    2    3 1
     5    2   10 1
     6    3    4 1
     7    3    5 1
     8    5    6 1
     9    5    7 1
    10    7    8 1
    11    7    9 1
    12    9   10 1
    13    9   11 1
    14   11   12 1
    15   13   14 2
    16   14   15 1
    17   15   16 2
    18   15   17 1
    19   17   18 2
    20   17   20 1
    21   18   19 1
    22   19   22 2
    23   20   21 2
    24   21   22 1
    25   21   26 1
    26   22   23 1
    27   23   24 2
    28   24   25 1
    29   25   26 2
    30    2   27 1
    31    3   28 1
    32    4   29 1
    33    5   30 1
    34    6   31 1
    35    7   32 1
    36    8   33 1
    37    9   34 1
    38   11   35 1
    39   11   36 1
    40   12   37 1
    41   16   38 1
    42   18   39 1
    43   19   40 1
    44   20   41 1
    45   23   42 1
    46   24   43 1
    47   25   44 1
    48   26   45 1
@<TRIPOS>PROPERTY_DATA
  Total_Score	| 12.4425
  Crash		| -1.3643
  Polar		| 9.0992
  FragIndex	| 1
  FragRMSD	| 0.205

