@<TRIPOS>MOLECULE
BindingDB_50306555
 33 34 0 0 0
SMALL
NO_CHARGES


@<TRIPOS>ATOM
1    N        33.2633   22.9526   28.8970  N     
2    C        32.8623   22.0093   27.9317  C     
3    C        32.9760   22.5916   26.4852  C     
4    O        32.1400   23.7505   26.3468  O     
5    C        32.5865   21.5086   25.4366  C     
6    O        33.5920   20.4912   25.3720  O     
7    C        31.1984   20.8603   25.7545  C     
8    O        30.1739   21.7608   25.3606  O     
9    C        30.9806   20.5274   27.2756  C     
10   O        31.5136   21.5480   28.1479  O     
11   C        31.3830   19.0937   27.7392  C     
12   O        32.6384   18.6219   27.2319  O     
13   N        32.5182   23.5222   29.7014  N     
14   N        33.1325   24.3577   30.3591  N     
15   C        34.3649   24.3427   30.0032  C     
16   C        34.4477   23.4050   29.0672  C     
17   C        35.4406   25.1330   30.5379  C     
18   O        34.9923   26.2120   31.3583  O     
19   H        33.5333   21.1398   28.0198  H     
20   H        34.0076   22.9280   26.2976  H     
21   H        32.2644   24.0720   25.4276  H     
22   H        32.5628   21.9791   24.4581  H     
23   H        34.3910   20.8503   25.8362  H     
24   H        31.0892   19.9538   25.1551  H     
25   H        30.6165   22.5972   25.1074  H     
26   H        29.8995   20.5526   27.4599  H     
27   H        31.4275   19.0710   28.8275  H     
28   H        30.6138   18.3820   27.4258  H     
29   H        32.3946   18.0877   26.4450  H     
30   H        35.2816   23.1316   28.5904  H     
31   H        36.0879   24.4787   31.1423  H     
32   H        36.0415   25.5486   29.7177  H     
33   H        35.1820   27.0329   30.8394  H     
@<TRIPOS>BOND
     1    2    1 1
     2    1   13 1
     3    1   16 1
     4    2    3 1
     5    2   10 1
     6    3    4 1
     7    3    5 1
     8    5    6 1
     9    5    7 1
    10    7    8 1
    11    7    9 1
    12    9   10 1
    13    9   11 1
    14   11   12 1
    15   13   14 2
    16   14   15 1
    17   15   16 2
    18   15   17 1
    19   17   18 1
    20    2   19 1
    21    3   20 1
    22    4   21 1
    23    5   22 1
    24    6   23 1
    25    7   24 1
    26    8   25 1
    27    9   26 1
    28   11   27 1
    29   11   28 1
    30   12   29 1
    31   16   30 1
    32   17   31 1
    33   17   32 1
    34   18   33 1
@<TRIPOS>PROPERTY_DATA
  Total_Score	| 6.9704
  Crash		| -1.4406
  Polar		| 6.0935
  FragIndex	| 1
  FragRMSD	| 0.984

