@<TRIPOS>MOLECULE
BindingDB_50306560
 31 32 0 0 0
SMALL
NO_CHARGES


@<TRIPOS>ATOM
1    N        33.3002   22.8623   28.7889  N     
2    C        32.8154   21.9414   27.8366  C     
3    C        32.8426   22.5283   26.3915  C     
4    O        32.0892   23.7487   26.3098  O     
5    C        32.3088   21.4748   25.3798  C     
6    O        33.3020   20.4649   25.2238  O     
7    C        30.9456   20.8540   25.8006  C     
8    O        29.9262   21.8042   25.4721  O     
9    C        30.8678   20.4944   27.3226  C     
10   O        31.4792   21.5020   28.1625  O     
11   C        31.2910   19.0428   27.7007  C     
12   O        32.5703   18.6327   27.2258  O     
13   N        32.6253   23.4221   29.6654  N     
14   N        33.3242   24.1315   30.3799  N     
15   C        34.5393   24.0517   29.9923  C     
16   C        34.5251   23.2153   28.9597  C     
17   C        35.6082   24.6848   30.5747  C     
18   O        36.8690   24.5136   30.1151  O     
19   O        35.4120   25.5681   31.5758  O     
20   H        33.4691   21.0641   27.8798  H     
21   H        33.8782   22.7727   26.1247  H     
22   H        32.1459   24.0366   25.3705  H     
23   H        32.1894   21.9553   24.4032  H     
24   H        33.1029   20.0265   24.3653  H     
25   H        30.7475   19.9614   25.2045  H     
26   H        29.0860   21.2976   25.4344  H     
27   H        29.8110   20.5317   27.5967  H     
28   H        31.3099   18.9538   28.7877  H     
29   H        30.5437   18.3338   27.3293  H     
30   H        32.4011   18.0285   26.4717  H     
31   H        35.3138   22.9018   28.4398  H     
@<TRIPOS>BOND
     1    2    1 1
     2    1   13 1
     3    1   16 1
     4    2    3 1
     5    2   10 1
     6    3    4 1
     7    3    5 1
     8    5    6 1
     9    5    7 1
    10    7    8 1
    11    7    9 1
    12    9   10 1
    13    9   11 1
    14   11   12 1
    15   13   14 2
    16   14   15 1
    17   15   16 2
    18   15   17 1
    19   17   18 1
    20   17   19 2
    21    2   20 1
    22    3   21 1
    23    4   22 1
    24    5   23 1
    25    6   24 1
    26    7   25 1
    27    8   26 1
    28    9   27 1
    29   11   28 1
    30   11   29 1
    31   12   30 1
    32   16   31 1
@<TRIPOS>PROPERTY_DATA
  Total_Score	| 6.3744
  Crash		| -0.9366
  Polar		| 4.3838
  FragIndex	| 1
  FragRMSD	| 0.937

