@<TRIPOS>MOLECULE
BindingDB_50306559
 49 52 0 0 0
SMALL
NO_CHARGES


@<TRIPOS>ATOM
1    N        33.1794   23.2284   28.8642  N     
2    C        32.3117   22.8733   27.7878  C     
3    C        32.9953   22.8515   26.3690  C     
4    O        33.3482   24.1691   25.9363  O     
5    C        32.1259   22.1023   25.3119  C     
6    O        32.7939   22.1139   24.0525  O     
7    C        31.8708   20.6464   25.7871  C     
8    O        30.9994   19.9886   24.8738  O     
9    C        31.2510   20.6253   27.2171  C     
10   O        31.9598   21.4979   28.1347  O     
11   C        31.1879   19.1935   27.8335  C     
12   O        32.3752   18.4410   27.5912  O     
13   N        32.7785   23.5988   29.9861  N     
14   N        33.6890   23.8948   30.7300  N     
15   C        34.8137   23.7117   30.1447  C     
16   C        34.4713   23.2073   28.9513  C     
17   C        31.1374   23.7677   27.7216  C     
18   N        31.0554   24.9065   28.4038  N     
19   O        30.2323   23.6135   26.9137  O     
20   C        36.0699   24.0125   30.6780  C     
21   C        37.2620   23.4264   30.1790  C     
22   C        38.5176   23.7214   30.7381  C     
23   C        36.1994   24.9434   31.7457  C     
24   C        37.4570   25.2810   32.2966  C     
25   C        38.6304   24.6518   31.7935  C     
26   C        39.8705   24.9933   32.3578  C     
27   C        39.9414   25.9085   33.3480  C     
28   C        38.8124   26.5289   33.8127  C     
29   C        37.5893   26.2332   33.3139  C     
30   H        33.9382   22.2991   26.4384  H     
31   H        32.8114   24.3469   25.1276  H     
32   H        31.1731   22.6092   25.1612  H     
33   H        32.6098   23.0039   23.6739  H     
34   H        32.8312   20.1148   25.7875  H     
35   H        30.9770   19.0558   25.1660  H     
36   H        30.2155   20.9681   27.1461  H     
37   H        31.0594   19.2733   28.9142  H     
38   H        30.3338   18.6383   27.4387  H     
39   H        32.1843   17.9424   26.7684  H     
40   H        35.1244   22.9343   28.2480  H     
41   H        30.3090   25.5058   28.2471  H     
42   H        31.7645   25.1680   29.0025  H     
43   H        37.2314   22.7610   29.4109  H     
44   H        39.3513   23.2586   30.3636  H     
45   H        35.3626   25.4074   32.1179  H     
46   H        40.7031   24.5484   32.0441  H     
47   H        40.8240   26.1241   33.7541  H     
48   H        38.8965   27.1937   34.5521  H     
49   H        36.7949   26.7004   33.6842  H     
@<TRIPOS>BOND
     1    2    1 1
     2    1   13 1
     3    1   16 1
     4    2    3 1
     5    2   10 1
     6    2   17 1
     7    3    4 1
     8    3    5 1
     9    5    6 1
    10    5    7 1
    11    7    8 1
    12    7    9 1
    13    9   10 1
    14    9   11 1
    15   11   12 1
    16   13   14 2
    17   14   15 1
    18   15   16 2
    19   15   20 1
    20   17   18 am
    21   17   19 2
    22   20   21 2
    23   20   23 1
    24   21   22 1
    25   22   25 2
    26   23   24 2
    27   24   25 1
    28   24   29 1
    29   25   26 1
    30   26   27 2
    31   27   28 1
    32   28   29 2
    33    3   30 1
    34    4   31 1
    35    5   32 1
    36    6   33 1
    37    7   34 1
    38    8   35 1
    39    9   36 1
    40   11   37 1
    41   11   38 1
    42   12   39 1
    43   16   40 1
    44   18   41 1
    45   18   42 1
    46   21   43 1
    47   22   44 1
    48   23   45 1
    49   26   46 1
    50   27   47 1
    51   28   48 1
    52   29   49 1
@<TRIPOS>PROPERTY_DATA
  Total_Score	| 12.0162
  Crash		| -1.9142
  Polar		| 9.3272
  FragIndex	| 1
  FragRMSD	| 0.334

