@<TRIPOS>MOLECULE
BindingDB_50306549
 39 41 0 0 0
SMALL
NO_CHARGES


@<TRIPOS>ATOM
1    N        33.1670   23.1616   28.8778  N     
2    C        32.3486   22.5808   27.8902  C     
3    C        32.8108   22.8474   26.4231  C     
4    O        32.7373   24.2501   26.1591  O     
5    C        31.9345   22.0523   25.4111  C     
6    O        32.5054   22.1127   24.1023  O     
7    C        31.8030   20.5616   25.8238  C     
8    O        30.8932   19.9014   24.9462  O     
9    C        31.3449   20.4459   27.3071  C     
10   O        32.2666   21.1637   28.1574  O     
11   C        31.2602   18.9904   27.8245  C     
12   O        32.4518   18.2621   27.5394  O     
13   N        32.7133   23.6064   29.9362  N     
14   N        33.6108   23.9570   30.6935  N     
15   C        34.7489   23.7195   30.1582  C     
16   C        34.4481   23.1641   28.9818  C     
17   C        35.9861   24.0216   30.7401  C     
18   C        37.2204   23.7975   30.0736  C     
19   C        38.4501   24.1181   30.6834  C     
20   C        38.4748   24.6701   31.9736  C     
21   C        37.2686   24.9078   32.6529  C     
22   C        36.0456   24.5878   32.0396  C     
23   H        31.3392   23.0022   27.9892  H     
24   H        33.8514   22.5276   26.3030  H     
25   H        32.6898   24.3482   25.1825  H     
26   H        30.9337   22.4988   25.3560  H     
27   H        32.2731   22.9960   23.7519  H     
28   H        32.7816   20.0816   25.7081  H     
29   H        30.9012   18.9572   25.2202  H     
30   H        30.3450   20.8772   27.4124  H     
31   H        31.1117   18.9982   28.9081  H     
32   H        30.4137   18.4684   27.3711  H     
33   H        32.2808   17.8265   26.6787  H     
34   H        35.0944   22.8285   28.3039  H     
35   H        37.2431   23.4064   29.1306  H     
36   H        39.3325   23.9552   30.1869  H     
37   H        39.3655   24.9050   32.4145  H     
38   H        37.2807   25.3152   33.5899  H     
39   H        35.1889   24.7806   32.5650  H     
@<TRIPOS>BOND
     1    2    1 1
     2    1   13 1
     3    1   16 1
     4    2    3 1
     5    2   10 1
     6    3    4 1
     7    3    5 1
     8    5    6 1
     9    5    7 1
    10    7    8 1
    11    7    9 1
    12    9   10 1
    13    9   11 1
    14   11   12 1
    15   13   14 2
    16   14   15 1
    17   15   16 2
    18   15   17 1
    19   17   18 2
    20   17   22 1
    21   18   19 1
    22   19   20 2
    23   20   21 1
    24   21   22 2
    25    2   23 1
    26    3   24 1
    27    4   25 1
    28    5   26 1
    29    6   27 1
    30    7   28 1
    31    8   29 1
    32    9   30 1
    33   11   31 1
    34   11   32 1
    35   12   33 1
    36   16   34 1
    37   18   35 1
    38   19   36 1
    39   20   37 1
    40   21   38 1
    41   22   39 1
@<TRIPOS>PROPERTY_DATA
  Total_Score	| 12.5101
  Crash		| -0.9394
  Polar		| 9.2288
  FragIndex	| 1
  FragRMSD	| 0.078

