@<TRIPOS>MOLECULE
BindingDB_50306554
 42 44 0 0 0
SMALL
NO_CHARGES


@<TRIPOS>ATOM
1    N        33.0177   23.4791   28.8136  N     
2    C        32.2758   22.8012   27.8197  C     
3    C        32.7805   22.9879   26.3520  C     
4    O        32.6673   24.3714   26.0088  O     
5    C        31.9542   22.1141   25.3586  C     
6    O        32.5491   22.1358   24.0622  O     
7    C        31.8636   20.6401   25.8436  C     
8    O        30.9991   19.9119   24.9688  O     
9    C        31.3676   20.5804   27.3164  C     
10   O        32.2248   21.3978   28.1558  O     
11   C        31.3185   19.1428   27.9047  C     
12   O        32.4649   18.3749   27.5492  O     
13   N        32.6337   23.5375   29.9910  N     
14   N        33.3423   24.2786   30.6630  N     
15   C        34.2596   24.7552   29.9125  C     
16   C        34.0647   24.2161   28.7129  C     
17   C        35.3440   25.6257   30.3335  C     
18   C        36.5645   24.9494   30.8666  C     
19   C        36.6470   23.5532   31.0889  C     
20   C        37.8327   22.9715   31.5803  C     
21   C        38.9585   23.7761   31.8407  C     
22   C        38.8891   25.1629   31.6291  C     
23   C        37.7014   25.7478   31.1515  C     
24   H        31.2532   23.1993   27.8631  H     
25   H        33.8263   22.6943   26.2779  H     
26   H        32.7169   24.4100   25.0259  H     
27   H        30.9401   22.5212   25.2686  H     
28   H        32.3148   22.9964   23.6658  H     
29   H        32.8628   20.1959   25.7781  H     
30   H        31.0492   18.9792   25.2639  H     
31   H        30.3484   20.9715   27.3647  H     
32   H        31.2738   19.2008   28.9900  H     
33   H        30.4272   18.6176   27.5573  H     
34   H        32.2103   17.8959   26.7309  H     
35   H        34.6342   24.3508   27.8997  H     
36   H        35.6343   26.2494   29.4808  H     
37   H        34.9656   26.3001   31.1151  H     
38   H        35.8531   22.9414   30.8953  H     
39   H        37.8719   21.9608   31.7459  H     
40   H        39.8185   23.3532   32.1897  H     
41   H        39.6981   25.7505   31.8269  H     
42   H        37.6710   26.7575   31.0025  H     
@<TRIPOS>BOND
     1    2    1 1
     2    1   13 1
     3    1   16 1
     4    2    3 1
     5    2   10 1
     6    3    4 1
     7    3    5 1
     8    5    6 1
     9    5    7 1
    10    7    8 1
    11    7    9 1
    12    9   10 1
    13    9   11 1
    14   11   12 1
    15   13   14 2
    16   14   15 1
    17   15   16 2
    18   15   17 1
    19   17   18 1
    20   18   19 2
    21   18   23 1
    22   19   20 1
    23   20   21 2
    24   21   22 1
    25   22   23 2
    26    2   24 1
    27    3   25 1
    28    4   26 1
    29    5   27 1
    30    6   28 1
    31    7   29 1
    32    8   30 1
    33    9   31 1
    34   11   32 1
    35   11   33 1
    36   12   34 1
    37   16   35 1
    38   17   36 1
    39   17   37 1
    40   19   38 1
    41   20   39 1
    42   21   40 1
    43   22   41 1
    44   23   42 1
@<TRIPOS>PROPERTY_DATA
  Total_Score	| 11.8117
  Crash		| -1.2986
  Polar		| 9.5508
  FragIndex	| 1
  FragRMSD	| 0.809

