@<TRIPOS>MOLECULE
BindingDB_50306552
 35 36 0 0 0
SMALL
NO_CHARGES


@<TRIPOS>ATOM
1    N        33.1596   23.1277   28.8662  N     
2    C        32.3144   22.5500   27.9010  C     
3    C        32.7212   22.8536   26.4243  C     
4    O        32.6094   24.2622   26.1924  O     
5    C        31.8318   22.0506   25.4279  C     
6    O        32.3527   22.1430   24.0987  O     
7    C        31.7619   20.5473   25.8196  C     
8    O        30.8585   19.8803   24.9432  O     
9    C        31.3358   20.4008   27.3108  C     
10   O        32.2668   21.1260   28.1441  O     
11   C        31.2670   18.9401   27.8178  C     
12   O        32.4602   18.2158   27.5291  O     
13   N        32.7548   23.5554   29.9561  N     
14   N        33.6840   23.8788   30.6900  N     
15   C        34.7846   23.6510   30.0747  C     
16   C        34.4443   23.1249   28.9040  C     
17   C        36.0433   23.9283   30.5560  C     
18   O        36.1732   24.4746   31.7956  O     
19   O        37.1438   23.7003   29.7873  O     
20   C        37.3950   24.8586   32.4189  C     
21   H        31.3036   22.9510   28.0504  H     
22   H        33.7596   22.5528   26.2552  H     
23   H        32.7137   24.3941   25.2246  H     
24   H        30.8183   22.4693   25.4301  H     
25   H        32.2735   23.0857   23.8433  H     
26   H        32.7557   20.1055   25.6848  H     
27   H        30.8793   18.9361   25.2135  H     
28   H        30.3330   20.8236   27.4416  H     
29   H        31.1258   18.9391   28.9033  H     
30   H        30.4131   18.4200   27.3700  H     
31   H        32.3346   17.8805   26.6129  H     
32   H        35.0691   22.8421   28.1808  H     
33   H        38.0733   24.0032   32.4742  H     
34   H        37.1800   25.2123   33.4289  H     
35   H        37.8683   25.6648   31.8518  H     
@<TRIPOS>BOND
     1    2    1 1
     2    1   13 1
     3    1   16 1
     4    2    3 1
     5    2   10 1
     6    3    4 1
     7    3    5 1
     8    5    6 1
     9    5    7 1
    10    7    8 1
    11    7    9 1
    12    9   10 1
    13    9   11 1
    14   11   12 1
    15   13   14 2
    16   14   15 1
    17   15   16 2
    18   15   17 1
    19   17   18 1
    20   17   19 2
    21   18   20 1
    22    2   21 1
    23    3   22 1
    24    4   23 1
    25    5   24 1
    26    6   25 1
    27    7   26 1
    28    8   27 1
    29    9   28 1
    30   11   29 1
    31   11   30 1
    32   12   31 1
    33   16   32 1
    34   20   33 1
    35   20   34 1
    36   20   35 1
@<TRIPOS>PROPERTY_DATA
  Total_Score	| 11.3801
  Crash		| -0.9411
  Polar		| 9.0641
  FragIndex	| 1
  FragRMSD	| 0.107

