@<TRIPOS>MOLECULE
BindingDB_50057701
 128 128 0 0 0
SMALL
NO_CHARGES


@<TRIPOS>ATOM
1    C        26.6699   49.9277   34.6031  C     
2    C        31.0739   53.6569   38.1643  C     
3    C        19.0796   45.4413   32.1164  C     
4    C        20.6933   47.9198   32.8931  C     
5    C        24.0656   48.8115   33.4383  C     
6    C        29.0536   51.8818   36.5971  C     
7    N        25.1535   48.1801   33.8260  N     
8    N        29.9091   53.9733   38.7224  N     
9    C        26.0876   48.6137   34.8483  C     
10   N        19.5941   45.8579   33.2749  N     
11   N        30.3842   51.9518   36.5836  N     
12   C        29.5830   55.1990   39.3929  C     
13   N        27.6097   50.3789   35.4330  N     
14   N        21.9911   47.7450   33.1434  N     
15   C        19.7216   47.2149   33.7285  C     
16   C        31.3094   52.3130   37.6256  C     
17   C        28.1393   55.2827   39.5902  C     
18   C        19.0864   44.0343   31.7570  C     
19   N        17.9512   43.7674   30.9183  N     
20   C        16.7888   43.2519   31.2930  C     
21   C        23.1628   48.2132   32.4474  C     
22   C        28.2546   51.6622   35.3840  C     
23   O        26.2648   50.5992   33.6612  O     
24   O        31.9900   54.4760   38.1449  O     
25   O        20.3049   48.5702   31.9275  O     
26   O        18.6472   46.2488   31.2983  O     
27   O        28.4366   52.0772   37.6383  O     
28   O        23.8280   49.9374   33.8727  O     
29   C        18.3139   47.8754   33.9359  C     
30   O        27.4991   56.1989   39.0980  O     
31   C        15.7718   42.9362   30.2958  C     
32   C        31.4503   51.2236   38.7363  C     
33   C        20.4108   43.6436   31.0290  C     
34   O        16.5247   43.0570   32.4704  O     
35   N        27.4688   54.4160   40.3168  N     
36   C        18.2855   49.3527   34.1545  C     
37   C        18.2209   52.1661   34.5047  C     
38   C        25.4820   48.4375   36.2847  C     
39   C        30.3444   55.3591   40.7412  C     
40   N        15.2293   40.5887   31.0311  N     
41   C        19.3490   50.0263   34.7929  C     
42   C        17.1789   50.1171   33.7061  C     
43   N        26.8493   56.0054   32.7687  N     
44   C        17.1481   51.5155   33.8769  C     
45   C        19.3318   51.4230   34.9535  C     
46   O        18.2240   53.5166   34.6640  O     
47   O        25.6232   49.5531   37.1713  O     
48   O        29.7014   54.7016   41.8286  O     
49   C        15.7060   41.4290   29.9231  C     
50   C        32.6612   51.4108   39.7134  C     
51   C        20.3283   42.4331   30.0495  C     
52   C        28.9983   51.8428   34.0156  C     
53   C        22.9636   49.1418   31.2198  C     
54   C        28.2267   55.4864   32.7171  C     
55   C        29.2868   53.3223   33.6450  C     
56   C        28.1802   53.9488   32.7494  C     
57   C        21.2537   42.6626   28.8237  C     
58   C        20.6506   41.0718   30.7203  C     
59   C        32.2738   51.0586   41.1748  C     
60   C        33.9051   50.5936   39.2574  C     
61   H        25.3517   47.3333   33.4058  H     
62   H        29.2236   53.2910   38.6993  H     
63   H        26.9162   47.9089   34.7593  H     
64   H        19.9661   45.1770   33.8576  H     
65   H        30.8044   51.7682   35.7311  H     
66   H        29.8806   56.0287   38.7452  H     
67   H        27.8174   49.8271   36.2116  H     
68   H        22.1873   47.2276   33.9461  H     
69   H        20.1663   47.1629   34.7283  H     
70   H        32.2730   52.3271   37.1069  H     
71   H        19.0431   43.4349   32.6760  H     
72   H        18.0578   43.9768   29.9795  H     
73   H        23.6277   47.3034   32.0451  H     
74   H        27.4588   52.4128   35.4355  H     
75   H        17.6798   47.6268   33.0817  H     
76   H        17.8486   47.4056   34.8053  H     
77   H        14.7923   43.2590   30.6674  H     
78   H        15.9607   43.4958   29.3747  H     
79   H        30.5170   51.2078   39.3085  H     
80   H        31.5362   50.2447   38.2525  H     
81   H        20.7697   44.5068   30.4550  H     
82   H        21.1705   43.4252   31.7902  H     
83   H        26.5085   54.5126   40.4280  H     
84   H        27.9249   53.6658   40.7395  H     
85   H        24.4154   48.2238   36.2383  H     
86   H        25.9534   47.5789   36.7643  H     
87   H        31.3537   54.9566   40.6485  H     
88   H        30.4355   56.4181   40.9880  H     
89   H        15.8930   40.6255   31.8099  H     
90   H        15.1216   39.6201   30.7121  H     
91   H        14.3275   40.9429   31.3543  H     
92   H        20.1610   49.5036   35.1242  H     
93   H        16.3855   49.6736   33.2406  H     
94   H        26.3151   55.5995   31.9972  H     
95   H        26.8536   57.0196   32.6800  H     
96   H        26.4329   55.7316   33.6681  H     
97   H        16.3410   52.0564   33.5490  H     
98   H        20.1164   51.9009   35.3985  H     
99   H        17.3446   53.7327   35.0508  H     
100  H        26.4519   49.4001   37.6572  H     
101  H        29.6976   53.7492   41.5986  H     
102  H        15.0113   41.2982   29.0878  H     
103  H        16.6904   41.0747   29.5988  H     
104  H        32.9498   52.4678   39.7174  H     
105  H        19.3082   42.3767   29.6691  H     
106  H        29.9383   51.2868   34.0410  H     
107  H        28.4119   51.4034   33.2041  H     
108  H        22.5400   50.1011   31.5269  H     
109  H        22.2853   48.6698   30.5034  H     
110  H        23.9183   49.3246   30.7265  H     
111  H        28.7116   55.8428   31.7997  H     
112  H        28.7669   55.8781   33.5842  H     
113  H        29.3957   53.9167   34.5554  H     
114  H        30.2330   53.3692   33.1028  H     
115  H        27.1933   53.6544   33.1135  H     
116  H        28.2877   53.5695   31.7300  H     
117  H        21.0368   43.6194   28.3438  H     
118  H        21.1017   41.8707   28.0856  H     
119  H        22.3052   42.6549   29.1265  H     
120  H        21.6720   41.0698   31.1202  H     
121  H        20.5531   40.2577   29.9929  H     
122  H        19.9568   40.8683   31.5412  H     
123  H        31.4542   51.6932   41.5120  H     
124  H        33.1214   51.2255   41.8389  H     
125  H        31.9640   50.0161   41.2561  H     
126  H        33.6681   49.5285   39.2048  H     
127  H        34.7319   50.7317   39.9573  H     
128  H        34.2428   50.9234   38.2731  H     
@<TRIPOS>BOND
     1    1    9 1
     2    1   13 am
     3    1   23 2
     4    2    8 am
     5    2   16 1
     6    2   24 2
     7    3   10 am
     8    3   18 1
     9    3   26 2
    10    4   14 am
    11    4   15 1
    12    4   25 2
    13    5    7 am
    14    5   21 1
    15    5   28 2
    16    6   11 am
    17    6   22 1
    18    6   27 2
    19    7    9 1
    20    8   12 1
    21    9   38 1
    22   10   15 1
    23   11   16 1
    24   12   17 1
    25   12   39 1
    26   13   22 1
    27   14   21 1
    28   15   29 1
    29   16   32 1
    30   17   30 2
    31   17   35 am
    32   18   19 1
    33   18   33 1
    34   19   20 am
    35   20   31 1
    36   20   34 2
    37   21   53 1
    38   22   52 1
    39   29   36 1
    40   31   49 1
    41   32   50 1
    42   33   51 1
    43   36   41 2
    44   36   42 1
    45   37   44 1
    46   37   45 2
    47   37   46 1
    48   38   47 1
    49   39   48 1
    50   40   49 1
    51   41   45 1
    52   42   44 2
    53   43   54 1
    54   50   59 1
    55   50   60 1
    56   51   57 1
    57   51   58 1
    58   52   55 1
    59   54   56 1
    60   55   56 1
    61    7   61 1
    62    8   62 1
    63    9   63 1
    64   10   64 1
    65   11   65 1
    66   12   66 1
    67   13   67 1
    68   14   68 1
    69   15   69 1
    70   16   70 1
    71   18   71 1
    72   19   72 1
    73   21   73 1
    74   22   74 1
    75   29   75 1
    76   29   76 1
    77   31   77 1
    78   31   78 1
    79   32   79 1
    80   32   80 1
    81   33   81 1
    82   33   82 1
    83   35   83 1
    84   35   84 1
    85   38   85 1
    86   38   86 1
    87   39   87 1
    88   39   88 1
    89   40   89 1
    90   40   90 1
    91   40   91 1
    92   41   92 1
    93   42   93 1
    94   43   94 1
    95   43   95 1
    96   43   96 1
    97   44   97 1
    98   45   98 1
    99   46   99 1
   100   47  100 1
   101   48  101 1
   102   49  102 1
   103   49  103 1
   104   50  104 1
   105   51  105 1
   106   52  106 1
   107   52  107 1
   108   53  108 1
   109   53  109 1
   110   53  110 1
   111   54  111 1
   112   54  112 1
   113   55  113 1
   114   55  114 1
   115   56  115 1
   116   56  116 1
   117   57  117 1
   118   57  118 1
   119   57  119 1
   120   58  120 1
   121   58  121 1
   122   58  122 1
   123   59  123 1
   124   59  124 1
   125   59  125 1
   126   60  126 1
   127   60  127 1
   128   60  128 1
@<TRIPOS>PROPERTY_DATA
  Total_Score	| 13.6593
  Crash		| -4.9899
  Polar		| 11.6037
  FragIndex	| 1
  FragRMSD	| 0.969

