@<TRIPOS>MOLECULE
BindingDB_50057693
 92 93 0 0 0
SMALL
NO_CHARGES


@<TRIPOS>ATOM
1    C        26.5278   49.5361   34.6713  C     
2    C        25.1132   49.2932   34.9293  C     
3    N        27.0901   50.6407   35.1492  N     
4    N        24.4884   48.4792   33.9222  N     
5    C        24.1209   48.8627   32.7069  C     
6    C        28.8889   51.4444   36.5382  C     
7    C        28.5041   50.9314   35.2232  C     
8    O        27.1995   48.6592   34.1390  O     
9    O        28.0370   51.8352   37.3315  O     
10   O        24.3288   50.0083   32.3181  O     
11   N        30.1838   51.5133   36.8343  N     
12   C        23.5143   47.8979   31.8063  C     
13   C        22.0963   47.5917   32.1634  C     
14   C        19.3868   46.8871   32.7300  C     
15   C        24.9410   48.5870   36.3023  C     
16   N        19.6414   41.3681   31.0874  N     
17   C        21.7848   46.6645   33.1820  C     
18   N        28.0167   56.3492   31.9151  N     
19   C        21.0303   48.1807   31.4461  C     
20   C        19.6935   47.8320   31.7237  C     
21   C        20.4477   46.3291   33.4716  C     
22   C        30.8095   52.1385   37.9614  C     
23   O        25.3711   49.4180   37.3746  O     
24   C        33.1631   51.6248   39.0386  C     
25   C        28.9191   51.9050   34.0733  C     
26   C        31.6917   51.1529   38.7959  C     
27   C        18.6720   41.9267   32.0492  C     
28   C        28.1015   55.6755   33.2203  C     
29   C        17.9663   46.5502   33.0316  C     
30   C        33.2841   52.9463   39.8678  C     
31   C        34.0762   50.5120   39.6575  C     
32   C        28.1023   53.2243   34.0093  C     
33   C        18.7156   43.4675   32.0970  C     
34   C        28.7473   54.2761   33.0668  C     
35   C        17.2708   45.6566   31.9581  C     
36   C        17.3109   44.1288   32.2167  C     
37   C        33.8553   50.3139   41.1836  C     
38   C        33.0539   52.7366   41.3888  C     
39   C        34.0058   51.6521   41.9532  C     
40   H        24.5657   50.2381   34.9898  H     
41   H        26.4968   51.3014   35.5498  H     
42   H        24.3178   47.5553   34.1630  H     
43   H        29.0710   50.0098   35.0711  H     
44   H        30.7861   51.1633   36.1651  H     
45   H        23.5635   48.2724   30.7778  H     
46   H        24.0988   46.9742   31.8079  H     
47   H        23.8883   48.3511   36.4643  H     
48   H        25.5071   47.6549   36.3321  H     
49   H        19.4407   41.7211   30.1452  H     
50   H        19.5865   40.3454   31.0786  H     
51   H        20.5881   41.6605   31.3567  H     
52   H        22.5325   46.2132   33.7178  H     
53   H        28.9552   56.4111   31.5058  H     
54   H        27.6293   57.2856   32.0485  H     
55   H        27.4049   55.7978   31.3056  H     
56   H        21.2183   48.8688   30.7096  H     
57   H        18.9477   48.2703   31.1753  H     
58   H        20.2583   45.6480   34.2087  H     
59   H        31.4303   52.9285   37.5340  H     
60   H        30.0849   52.6269   38.6234  H     
61   H        26.3115   49.1974   37.5158  H     
62   H        33.5741   51.8411   38.0510  H     
63   H        29.9835   52.1402   34.1712  H     
64   H        28.8010   51.3770   33.1222  H     
65   H        31.2031   50.9640   39.7522  H     
66   H        31.7365   50.1897   38.2810  H     
67   H        17.6783   41.5612   31.7587  H     
68   H        18.9057   41.5167   33.0411  H     
69   H        28.6945   56.2945   33.8984  H     
70   H        27.0872   55.5939   33.6200  H     
71   H        17.8779   46.0601   34.0092  H     
72   H        17.4125   47.4858   33.1149  H     
73   H        34.2879   53.3635   39.7288  H     
74   H        32.5775   53.6981   39.5109  H     
75   H        33.9091   49.5600   39.1440  H     
76   H        35.1266   50.7793   39.4934  H     
77   H        27.0905   53.0066   33.6516  H     
78   H        28.0257   53.6594   35.0151  H     
79   H        19.3373   43.7567   32.9486  H     
80   H        19.2036   43.8551   31.1922  H     
81   H        28.6320   53.9359   32.0320  H     
82   H        29.8209   54.3619   33.2794  H     
83   H        16.2143   45.9359   31.9323  H     
84   H        17.6603   45.8582   30.9550  H     
85   H        16.6480   43.6537   31.4822  H     
86   H        16.8970   43.9059   33.2086  H     
87   H        32.8584   49.8982   41.3533  H     
88   H        34.5868   49.5936   41.5652  H     
89   H        33.2332   53.6798   41.9170  H     
90   H        32.0141   52.4442   41.5685  H     
91   H        33.7827   51.4904   43.0108  H     
92   H        35.0412   51.9997   41.8753  H     
@<TRIPOS>BOND
     1    1    2 1
     2    1    3 am
     3    1    8 2
     4    2    4 1
     5    2   15 1
     6    3    7 1
     7    4    5 am
     8    5   10 2
     9    5   12 1
    10    6    7 1
    11    6    9 2
    12    6   11 am
    13    7   25 1
    14   11   22 1
    15   12   13 1
    16   13   17 2
    17   13   19 1
    18   14   20 1
    19   14   21 2
    20   14   29 1
    21   15   23 1
    22   16   27 1
    23   17   21 1
    24   18   28 1
    25   19   20 2
    26   22   26 1
    27   24   26 1
    28   24   30 1
    29   24   31 1
    30   25   32 1
    31   27   33 1
    32   28   34 1
    33   29   35 1
    34   30   38 1
    35   31   37 1
    36   32   34 1
    37   33   36 1
    38   35   36 1
    39   37   39 1
    40   38   39 1
    41    2   40 1
    42    3   41 1
    43    4   42 1
    44    7   43 1
    45   11   44 1
    46   12   45 1
    47   12   46 1
    48   15   47 1
    49   15   48 1
    50   16   49 1
    51   16   50 1
    52   16   51 1
    53   17   52 1
    54   18   53 1
    55   18   54 1
    56   18   55 1
    57   19   56 1
    58   20   57 1
    59   21   58 1
    60   22   59 1
    61   22   60 1
    62   23   61 1
    63   24   62 1
    64   25   63 1
    65   25   64 1
    66   26   65 1
    67   26   66 1
    68   27   67 1
    69   27   68 1
    70   28   69 1
    71   28   70 1
    72   29   71 1
    73   29   72 1
    74   30   73 1
    75   30   74 1
    76   31   75 1
    77   31   76 1
    78   32   77 1
    79   32   78 1
    80   33   79 1
    81   33   80 1
    82   34   81 1
    83   34   82 1
    84   35   83 1
    85   35   84 1
    86   36   85 1
    87   36   86 1
    88   37   87 1
    89   37   88 1
    90   38   89 1
    91   38   90 1
    92   39   91 1
    93   39   92 1
@<TRIPOS>PROPERTY_DATA
  Total_Score	| 16.3176
  Crash		| -1.5322
  Polar		| 9.2507
  FragIndex	| 1
  FragRMSD	| 0.588

