@<TRIPOS>MOLECULE
BindingDB_50034993
 96 98 0 0 0
SMALL
NO_CHARGES


@<TRIPOS>ATOM
1    C        26.6240   49.6371   34.7091  C     
2    N        19.5832   43.6731   31.2589  N     
3    C        20.6197   43.2673   30.4830  C     
4    C        25.2128   49.3367   34.9461  C     
5    N        21.4780   42.5261   31.2089  N     
6    N        27.1206   50.8132   35.0836  N     
7    N        24.6412   48.4979   33.9244  N     
8    C        24.3083   48.8618   32.6896  C     
9    C        28.9242   51.6192   36.4485  C     
10   C        20.9866   42.4458   32.4498  C     
11   C        28.5106   51.2108   35.1100  C     
12   C        19.7934   43.1461   32.4830  C     
13   O        27.3460   48.7497   34.2657  O     
14   O        28.0841   51.9702   37.2775  O     
15   O        24.4820   50.0099   32.2932  O     
16   N        30.2140   51.6128   36.7741  N     
17   C        23.7508   47.8760   31.7805  C     
18   C        22.3026   47.6342   32.0345  C     
19   C        19.5227   47.1851   32.5265  C     
20   C        25.0569   48.6421   36.3309  C     
21   C        18.4795   44.4788   30.8160  C     
22   C        21.8819   46.7211   33.0283  C     
23   C        21.3160   48.3221   31.2923  C     
24   N        25.8879   55.5632   32.7990  N     
25   C        19.9469   48.1026   31.5398  C     
26   C        20.5161   46.5074   33.2772  C     
27   C        30.7895   51.9922   38.0303  C     
28   C        20.8117   43.5406   29.0451  C     
29   O        25.4497   49.5051   37.3997  O     
30   C        32.5555   51.1540   39.8146  C     
31   C        28.7793   52.3021   34.0333  C     
32   C        32.0337   51.1112   38.3420  C     
33   C        27.3203   55.8359   32.9418  C     
34   C        18.0704   47.0395   32.8319  C     
35   C        17.2810   44.7365   31.7758  C     
36   C        33.9772   50.5097   39.9146  C     
37   C        32.5727   52.5868   40.4273  C     
38   C        27.8236   53.5265   34.0389  C     
39   C        28.1699   54.5412   32.9149  C     
40   C        17.5234   45.6005   33.0419  C     
41   C        33.1213   52.5945   41.8803  C     
42   C        34.5172   50.5088   41.3708  C     
43   C        34.5203   51.9353   41.9781  C     
44   H        24.6258   50.2618   34.9914  H     
45   H        26.4859   51.4660   35.4202  H     
46   H        24.4681   47.5745   34.1655  H     
47   H        21.4189   41.9560   33.2346  H     
48   H        29.1362   50.3554   34.8205  H     
49   H        19.1944   43.2401   33.3026  H     
50   H        30.8297   51.3095   36.0844  H     
51   H        23.8896   48.1939   30.7407  H     
52   H        24.3058   46.9335   31.8799  H     
53   H        24.0111   48.3781   36.4918  H     
54   H        25.6493   47.7217   36.3798  H     
55   H        18.8641   45.4493   30.5009  H     
56   H        18.0660   43.9962   29.9238  H     
57   H        22.5696   46.2107   33.5873  H     
58   H        21.5855   48.9958   30.5738  H     
59   H        25.7406   54.9514   31.9987  H     
60   H        25.3830   56.4392   32.6606  H     
61   H        25.5440   55.1062   33.6441  H     
62   H        19.2613   48.6314   30.9978  H     
63   H        20.2507   45.8399   34.0115  H     
64   H        31.0838   53.0440   37.9898  H     
65   H        30.0474   51.8703   38.8255  H     
66   H        19.9622   43.1596   28.4762  H     
67   H        21.7195   43.0607   28.6730  H     
68   H        20.8931   44.6159   28.8876  H     
69   H        26.4145   49.3609   37.5132  H     
70   H        31.8751   50.5419   40.4171  H     
71   H        29.8091   52.6611   34.1480  H     
72   H        28.7160   51.8272   33.0491  H     
73   H        31.7665   50.0738   38.1217  H     
74   H        32.8394   51.3992   37.6578  H     
75   H        27.6282   56.4764   32.1111  H     
76   H        27.4899   56.3786   33.8722  H     
77   H        17.8934   47.5939   33.7580  H     
78   H        17.4564   47.5096   32.0583  H     
79   H        16.4963   45.2332   31.1920  H     
80   H        16.8757   43.7686   32.0915  H     
81   H        33.9411   49.4757   39.5641  H     
82   H        34.6774   51.0543   39.2751  H     
83   H        33.1899   53.2461   39.8086  H     
84   H        31.5616   52.9957   40.4478  H     
85   H        26.7958   53.1792   33.9002  H     
86   H        27.8832   54.0326   35.0062  H     
87   H        28.0388   54.0592   31.9415  H     
88   H        29.2230   54.8229   33.0059  H     
89   H        18.1892   45.0745   33.7395  H     
90   H        16.5581   45.6851   33.5498  H     
91   H        33.1881   53.6243   42.2431  H     
92   H        32.4267   52.0556   42.5330  H     
93   H        33.8945   49.8551   41.9867  H     
94   H        35.5345   50.1113   41.3841  H     
95   H        35.2551   52.5509   41.4485  H     
96   H        34.8279   51.8772   43.0286  H     
@<TRIPOS>BOND
     1    1    4 1
     2    1    6 am
     3    1   13 2
     4    2    3 1
     5    2   12 1
     6    2   21 1
     7    3    5 2
     8    3   28 1
     9    4    7 1
    10    4   20 1
    11    5   10 1
    12    6   11 1
    13    7    8 am
    14    8   15 2
    15    8   17 1
    16    9   11 1
    17    9   14 2
    18    9   16 am
    19   10   12 2
    20   11   31 1
    21   16   27 1
    22   17   18 1
    23   18   22 2
    24   18   23 1
    25   19   25 1
    26   19   26 2
    27   19   34 1
    28   20   29 1
    29   21   35 1
    30   22   26 1
    31   23   25 2
    32   24   33 1
    33   27   32 1
    34   30   32 1
    35   30   36 1
    36   30   37 1
    37   31   38 1
    38   33   39 1
    39   34   40 1
    40   35   40 1
    41   36   42 1
    42   37   41 1
    43   38   39 1
    44   41   43 1
    45   42   43 1
    46    4   44 1
    47    6   45 1
    48    7   46 1
    49   10   47 1
    50   11   48 1
    51   12   49 1
    52   16   50 1
    53   17   51 1
    54   17   52 1
    55   20   53 1
    56   20   54 1
    57   21   55 1
    58   21   56 1
    59   22   57 1
    60   23   58 1
    61   24   59 1
    62   24   60 1
    63   24   61 1
    64   25   62 1
    65   26   63 1
    66   27   64 1
    67   27   65 1
    68   28   66 1
    69   28   67 1
    70   28   68 1
    71   29   69 1
    72   30   70 1
    73   31   71 1
    74   31   72 1
    75   32   73 1
    76   32   74 1
    77   33   75 1
    78   33   76 1
    79   34   77 1
    80   34   78 1
    81   35   79 1
    82   35   80 1
    83   36   81 1
    84   36   82 1
    85   37   83 1
    86   37   84 1
    87   38   85 1
    88   38   86 1
    89   39   87 1
    90   39   88 1
    91   40   89 1
    92   40   90 1
    93   41   91 1
    94   41   92 1
    95   42   93 1
    96   42   94 1
    97   43   95 1
    98   43   96 1
@<TRIPOS>PROPERTY_DATA
  Total_Score	| 17.4806
  Crash		| -1.7749
  Polar		| 7.8095
  FragIndex	| 1
  FragRMSD	| 0.514

