@<TRIPOS>MOLECULE
BindingDB_50057702
 98 99 0 0 0
SMALL
NO_CHARGES


@<TRIPOS>ATOM
1    C        23.6448   49.7347   32.9043  C     
2    C        26.4912   49.6613   34.6529  C     
3    N        24.3911   49.0155   33.7455  N     
4    C        25.0722   49.4904   34.9221  C     
5    N        27.1006   50.7666   35.0530  N     
6    C        28.9615   51.6977   36.2528  C     
7    C        22.9855   49.1271   31.7447  C     
8    C        28.5050   51.0777   35.0089  C     
9    O        23.5501   50.9477   33.0534  O     
10   C        21.7507   48.3577   32.1044  C     
11   O        27.1038   48.7746   34.0570  O     
12   O        28.1392   52.0412   37.1060  O     
13   N        30.2499   51.9310   36.4312  N     
14   C        20.5580   48.5363   31.3610  C     
15   C        21.7283   47.4172   33.1660  C     
16   C        20.5551   46.7003   33.4761  C     
17   C        19.3938   47.8106   31.6594  C     
18   C        19.3751   46.8727   32.7169  C     
19   C        24.8540   48.5275   36.1195  C     
20   N        28.3226   56.5425   31.6802  N     
21   N        19.5482   40.4309   29.3071  N     
22   C        30.8728   52.5938   37.5356  C     
23   O        25.3093   49.1367   37.3283  O     
24   C        23.9473   48.2984   30.8539  C     
25   C        32.9645   52.5026   39.1158  C     
26   C        28.7779   51.9529   33.7472  C     
27   C        32.1635   51.8440   37.9446  C     
28   C        27.7011   55.5849   32.6020  C     
29   C        19.1641   41.8056   29.6502  C     
30   C        18.1632   46.0631   33.0071  C     
31   C        32.1628   52.6584   40.4521  C     
32   C        34.2980   51.7472   39.4141  C     
33   C        27.8919   53.2253   33.6227  C     
34   C        20.2198   42.5289   30.5289  C     
35   C        28.3976   54.2042   32.5298  C     
36   C        18.2195   44.6348   32.3928  C     
37   C        18.6075   44.5912   30.8762  C     
38   C        20.0481   44.0752   30.5772  C     
39   C        34.0782   50.3856   40.1254  C     
40   C        31.9012   51.3062   41.1640  C     
41   C        33.2192   50.5258   41.4081  C     
42   H        24.5012   48.0741   33.5379  H     
43   H        24.6390   50.4502   35.2332  H     
44   H        26.5337   51.4386   35.4724  H     
45   H        22.6828   49.9541   31.0899  H     
46   H        29.0882   50.1589   34.8885  H     
47   H        30.8458   51.6462   35.7170  H     
48   H        20.5303   49.1895   30.5737  H     
49   H        22.5664   47.2407   33.7241  H     
50   H        20.5728   46.0381   34.2566  H     
51   H        18.5610   47.9546   31.0871  H     
52   H        23.7888   48.3207   36.2288  H     
53   H        25.3727   47.5760   35.9695  H     
54   H        29.3183   56.6274   31.8956  H     
55   H        27.8772   57.4551   31.8006  H     
56   H        28.2112   56.2355   30.7092  H     
57   H        20.3922   40.4443   28.7328  H     
58   H        18.7900   39.9864   28.7795  H     
59   H        19.7248   39.8815   30.1501  H     
60   H        31.1270   53.6098   37.2238  H     
61   H        30.1992   52.6651   38.3913  H     
62   H        26.2184   48.7972   37.4745  H     
63   H        24.8207   48.8985   30.5953  H     
64   H        23.4463   48.0228   29.9225  H     
65   H        24.2750   47.3875   31.3600  H     
66   H        33.2427   53.5076   38.7837  H     
67   H        29.8308   52.2480   33.7446  H     
68   H        28.6247   51.3383   32.8532  H     
69   H        31.9065   50.8106   38.1910  H     
70   H        32.8135   51.8160   37.0621  H     
71   H        27.7829   55.9934   33.6109  H     
72   H        26.6426   55.4871   32.3532  H     
73   H        19.0344   42.3470   28.7107  H     
74   H        18.2048   41.7662   30.1642  H     
75   H        18.0400   45.9863   34.0902  H     
76   H        17.2690   46.5607   32.6220  H     
77   H        32.7368   53.3002   41.1295  H     
78   H        31.2117   53.1646   40.2753  H     
79   H        34.8516   51.5762   38.4866  H     
80   H        34.9290   52.3757   40.0509  H     
81   H        26.8651   52.9267   33.3855  H     
82   H        27.8727   53.7521   34.5804  H     
83   H        20.1787   42.1184   31.5408  H     
84   H        21.2144   42.3159   30.1261  H     
85   H        28.2241   53.7686   31.5408  H     
86   H        29.4748   54.3485   32.6531  H     
87   H        18.9024   44.0208   32.9900  H     
88   H        17.2261   44.1925   32.5138  H     
89   H        17.8877   43.9639   30.3386  H     
90   H        18.5180   45.5953   30.4444  H     
91   H        20.7394   44.4792   31.3241  H     
92   H        20.3745   44.4782   29.6125  H     
93   H        33.5964   49.6861   39.4371  H     
94   H        35.0493   49.9655   40.3967  H     
95   H        31.4150   51.4965   42.1259  H     
96   H        31.2173   50.6950   40.5688  H     
97   H        32.9814   49.5282   41.7860  H     
98   H        33.8045   51.0449   42.1731  H     
@<TRIPOS>BOND
     1    1    3 am
     2    1    7 1
     3    1    9 2
     4    2    4 1
     5    2    5 am
     6    2   11 2
     7    3    4 1
     8    4   19 1
     9    5    8 1
    10    6    8 1
    11    6   12 2
    12    6   13 am
    13    7   10 1
    14    7   24 1
    15    8   26 1
    16   10   14 2
    17   10   15 1
    18   13   22 1
    19   14   17 1
    20   15   16 2
    21   16   18 1
    22   17   18 2
    23   18   30 1
    24   19   23 1
    25   20   28 1
    26   21   29 1
    27   22   27 1
    28   25   27 1
    29   25   31 1
    30   25   32 1
    31   26   33 1
    32   28   35 1
    33   29   34 1
    34   30   36 1
    35   31   40 1
    36   32   39 1
    37   33   35 1
    38   34   38 1
    39   36   37 1
    40   37   38 1
    41   39   41 1
    42   40   41 1
    43    3   42 1
    44    4   43 1
    45    5   44 1
    46    7   45 1
    47    8   46 1
    48   13   47 1
    49   14   48 1
    50   15   49 1
    51   16   50 1
    52   17   51 1
    53   19   52 1
    54   19   53 1
    55   20   54 1
    56   20   55 1
    57   20   56 1
    58   21   57 1
    59   21   58 1
    60   21   59 1
    61   22   60 1
    62   22   61 1
    63   23   62 1
    64   24   63 1
    65   24   64 1
    66   24   65 1
    67   25   66 1
    68   26   67 1
    69   26   68 1
    70   27   69 1
    71   27   70 1
    72   28   71 1
    73   28   72 1
    74   29   73 1
    75   29   74 1
    76   30   75 1
    77   30   76 1
    78   31   77 1
    79   31   78 1
    80   32   79 1
    81   32   80 1
    82   33   81 1
    83   33   82 1
    84   34   83 1
    85   34   84 1
    86   35   85 1
    87   35   86 1
    88   36   87 1
    89   36   88 1
    90   37   89 1
    91   37   90 1
    92   38   91 1
    93   38   92 1
    94   39   93 1
    95   39   94 1
    96   40   95 1
    97   40   96 1
    98   41   97 1
    99   41   98 1
@<TRIPOS>PROPERTY_DATA
  Total_Score	| 18.4405
  Crash		| -2.6284
  Polar		| 11.0166
  FragIndex	| 1
  FragRMSD	| 0.961

