@<TRIPOS>MOLECULE
BindingDB_50291976
 128 128 0 0 0
SMALL
NO_CHARGES


@<TRIPOS>ATOM
1    C        26.5273   49.5733   34.7516  C     
2    C        30.9898   53.4136   37.9119  C     
3    C        19.8988   48.5926   34.6141  C     
4    C        21.7254   46.6446   33.0113  C     
5    C        23.9422   49.0403   32.8458  C     
6    C        28.9516   51.4920   36.5631  C     
7    N        24.4850   48.5557   33.9598  N     
8    N        29.8749   54.1276   37.8382  N     
9    C        25.1126   49.3257   35.0077  C     
10   C        19.7739   51.0631   32.4319  C     
11   N        19.6408   47.6766   33.6833  N     
12   N        30.2468   51.4859   36.8721  N     
13   C        29.6560   55.5259   37.5704  C     
14   N        19.0137   50.3237   33.2277  N     
15   N        27.1063   50.6802   35.2071  N     
16   N        22.0561   47.6983   32.2636  N     
17   C        20.3359   46.4430   33.4140  C     
18   C        30.8778   51.9664   38.0756  C     
19   C        19.2271   49.8909   34.5817  C     
20   C        30.8074   56.2623   37.0686  C     
21   C        23.3735   48.1110   31.8604  C     
22   C        28.5268   50.9491   35.2698  C     
23   O        27.1928   48.6729   34.2497  O     
24   O        22.5823   45.8498   33.3896  O     
25   O        20.7303   48.3823   35.4937  O     
26   O        32.0884   53.9388   37.7838  O     
27   O        28.1265   51.9579   37.3404  O     
28   O        23.9176   50.2513   32.6593  O     
29   O        20.8805   51.4503   32.7975  O     
30   C        19.5495   45.6901   32.2996  C     
31   O        31.4060   57.0622   37.7724  O     
32   C        17.8796   49.8773   35.3865  C     
33   C        32.2140   51.1748   38.2898  C     
34   C        19.2016   51.5509   31.1719  C     
35   N        31.3582   55.9418   35.9159  N     
36   C        20.0605   44.3333   31.9556  C     
37   C        21.0637   41.7445   31.3448  C     
38   N        20.0515   52.5227   30.4598  N     
39   C        24.9636   48.5834   36.3603  C     
40   C        29.0134   56.1616   38.8349  C     
41   C        20.6641   44.0664   30.7028  C     
42   C        19.9516   43.2736   32.8836  C     
43   N        26.9724   55.8339   32.8332  N     
44   C        21.1658   42.7838   30.4011  C     
45   C        20.4525   41.9931   32.5885  C     
46   O        21.5502   40.5067   31.0961  O     
47   O        28.3464   57.3826   38.5218  O     
48   O        25.3988   49.4051   37.4462  O     
49   C        32.9385   51.3102   39.6740  C     
50   C        16.9890   51.1706   35.4873  C     
51   C        28.9356   51.8353   34.0531  C     
52   C        23.2558   48.7183   30.4307  C     
53   C        28.4218   55.6024   32.8793  C     
54   C        18.8593   50.4168   30.1663  C     
55   C        28.2563   53.2345   33.9806  C     
56   C        28.8269   54.1085   32.8277  C     
57   C        17.7379   52.3615   36.1502  C     
58   C        34.1963   50.3927   39.7059  C     
59   C        33.3427   52.7602   40.0621  C     
60   C        16.3076   51.6188   34.1459  C     
61   H        24.4614   47.5934   34.0757  H     
62   H        29.0624   53.6241   37.9847  H     
63   H        24.5655   50.2720   35.1025  H     
64   H        18.9274   47.8895   33.0702  H     
65   H        30.8487   51.1474   36.1905  H     
66   H        28.8903   55.5604   36.7909  H     
67   H        18.1908   50.0202   32.8280  H     
68   H        26.5208   51.3651   35.5794  H     
69   H        21.3288   48.2840   31.9786  H     
70   H        20.3017   45.8469   34.3280  H     
71   H        30.2489   51.7623   38.9505  H     
72   H        19.8874   50.6170   35.0792  H     
73   H        24.0365   47.2451   31.7796  H     
74   H        29.0761   50.0083   35.1620  H     
75   H        18.5108   45.5801   32.6081  H     
76   H        19.5417   46.3248   31.4098  H     
77   H        17.2407   49.0768   34.9933  H     
78   H        18.1155   49.5655   36.4121  H     
79   H        31.9696   50.1134   38.1754  H     
80   H        32.9218   51.4245   37.4915  H     
81   H        18.2703   52.0860   31.4017  H     
82   H        32.1861   56.3596   35.6359  H     
83   H        30.9548   55.2608   35.3579  H     
84   H        20.3032   53.2887   31.0911  H     
85   H        19.5330   52.8975   29.6559  H     
86   H        20.8891   52.0467   30.1196  H     
87   H        23.9141   48.3367   36.5283  H     
88   H        25.5370   47.6511   36.3621  H     
89   H        28.2771   55.4762   39.2681  H     
90   H        29.7770   56.3649   39.5909  H     
91   H        20.7491   44.8071   30.0037  H     
92   H        19.5123   43.4260   33.7921  H     
93   H        26.5855   55.3875   31.9996  H     
94   H        26.8063   56.8432   32.7873  H     
95   H        26.5240   55.4551   33.6704  H     
96   H        21.6039   42.6174   29.4903  H     
97   H        20.3662   41.2386   33.2749  H     
98   H        21.4629   40.3584   30.1260  H     
99   H        27.5528   57.1155   38.0114  H     
100  H        26.3233   49.1275   37.6304  H     
101  H        32.2526   50.9511   40.4493  H     
102  H        16.1913   50.9114   36.1817  H     
103  H        30.0227   51.9727   34.0656  H     
104  H        28.6962   51.2843   33.1383  H     
105  H        22.5463   49.5497   30.4274  H     
106  H        22.9109   47.9689   29.7157  H     
107  H        24.2267   49.0862   30.0885  H     
108  H        28.8644   56.1129   32.0191  H     
109  H        28.8175   56.0604   33.7884  H     
110  H        19.7199   49.7604   30.0232  H     
111  H        18.5637   50.8336   29.1949  H     
112  H        18.0233   49.8201   30.5389  H     
113  H        27.1814   53.1027   33.8334  H     
114  H        28.4060   53.7564   34.9296  H     
115  H        28.5038   53.6953   31.8657  H     
116  H        29.9207   54.0597   32.8587  H     
117  H        18.1827   52.0467   37.1013  H     
118  H        17.0385   53.1741   36.3556  H     
119  H        18.5272   52.7326   35.5021  H     
120  H        33.9327   49.3640   39.4530  H     
121  H        34.6516   50.3876   40.6981  H     
122  H        34.9412   50.7411   38.9860  H     
123  H        33.9909   53.1963   39.2984  H     
124  H        33.8799   52.7668   41.0153  H     
125  H        32.4581   53.3854   40.1887  H     
126  H        17.0256   51.9346   33.3756  H     
127  H        15.6424   52.4641   34.3389  H     
128  H        15.6951   50.7911   33.7693  H     
@<TRIPOS>BOND
     1    1    9 1
     2    1   15 am
     3    1   23 2
     4    2    8 am
     5    2   18 1
     6    2   26 2
     7    3   11 am
     8    3   19 1
     9    3   25 2
    10    4   16 am
    11    4   17 1
    12    4   24 2
    13    5    7 am
    14    5   21 1
    15    5   28 2
    16    6   12 am
    17    6   22 1
    18    6   27 2
    19    9    7 1
    20   13    8 1
    21    9   39 1
    22   10   14 am
    23   10   29 2
    24   10   34 1
    25   17   11 1
    26   18   12 1
    27   13   20 1
    28   13   40 1
    29   14   19 1
    30   22   15 1
    31   16   21 1
    32   17   30 1
    33   18   33 1
    34   19   32 1
    35   20   31 2
    36   20   35 am
    37   21   52 1
    38   22   51 1
    39   30   36 1
    40   32   50 1
    41   33   49 1
    42   34   38 1
    43   34   54 1
    44   36   41 2
    45   36   42 1
    46   37   44 2
    47   37   45 1
    48   37   46 1
    49   39   48 1
    50   40   47 1
    51   41   44 1
    52   42   45 2
    53   43   53 1
    54   49   58 1
    55   49   59 1
    56   50   57 1
    57   50   60 1
    58   51   55 1
    59   53   56 1
    60   55   56 1
    61    7   61 1
    62    8   62 1
    63    9   63 1
    64   11   64 1
    65   12   65 1
    66   13   66 1
    67   14   67 1
    68   15   68 1
    69   16   69 1
    70   17   70 1
    71   18   71 1
    72   19   72 1
    73   21   73 1
    74   22   74 1
    75   30   75 1
    76   30   76 1
    77   32   77 1
    78   32   78 1
    79   33   79 1
    80   33   80 1
    81   34   81 1
    82   35   82 1
    83   35   83 1
    84   38   84 1
    85   38   85 1
    86   38   86 1
    87   39   87 1
    88   39   88 1
    89   40   89 1
    90   40   90 1
    91   41   91 1
    92   42   92 1
    93   43   93 1
    94   43   94 1
    95   43   95 1
    96   44   96 1
    97   45   97 1
    98   46   98 1
    99   47   99 1
   100   48  100 1
   101   49  101 1
   102   50  102 1
   103   51  103 1
   104   51  104 1
   105   52  105 1
   106   52  106 1
   107   52  107 1
   108   53  108 1
   109   53  109 1
   110   54  110 1
   111   54  111 1
   112   54  112 1
   113   55  113 1
   114   55  114 1
   115   56  115 1
   116   56  116 1
   117   57  117 1
   118   57  118 1
   119   57  119 1
   120   58  120 1
   121   58  121 1
   122   58  122 1
   123   59  123 1
   124   59  124 1
   125   59  125 1
   126   60  126 1
   127   60  127 1
   128   60  128 1
@<TRIPOS>PROPERTY_DATA
  Total_Score	| 16.9550
  Crash		| -4.1850
  Polar		| 12.5856
  FragIndex	| 1
  FragRMSD	| 0.832

