@<TRIPOS>MOLECULE
BindingDB_50057678
 92 93 0 0 0
SMALL
NO_CHARGES


@<TRIPOS>ATOM
1    C        26.5527   49.6402   34.6276  C     
2    C        25.1405   49.3579   34.8615  C     
3    N        27.1223   50.6638   35.2457  N     
4    N        24.5159   48.5863   33.8214  N     
5    C        24.3209   48.9563   32.5606  C     
6    C        28.9210   51.4974   36.6180  C     
7    C        28.5305   50.9398   35.3289  C     
8    O        27.1920   48.9329   33.8433  O     
9    O        28.0980   52.0908   37.3158  O     
10   O        24.7025   50.0457   32.1438  O     
11   C        23.7243   48.0126   31.6396  C     
12   N        30.1739   51.3669   37.0276  N     
13   C        22.2459   47.9044   31.8067  C     
14   C        21.6468   46.7675   32.3961  C     
15   C        24.9721   48.6135   36.2191  C     
16   C        20.2405   46.6005   32.4399  C     
17   N        19.5710   40.3936   29.1552  N     
18   N        26.9464   55.7516   32.8380  N     
19   C        30.7176   51.8044   38.2778  C     
20   O        25.3938   49.4133   37.3252  O     
21   C        20.0036   48.7828   31.3465  C     
22   C        32.7517   51.3368   39.8772  C     
23   C        21.4060   48.9136   31.2889  C     
24   C        28.9688   51.8257   34.1200  C     
25   C        19.4291   47.6292   31.9103  C     
26   C        32.1492   51.2298   38.4399  C     
27   C        19.0920   41.7111   29.5856  C     
28   C        28.4018   55.5623   32.8750  C     
29   C        19.6380   45.3726   33.0375  C     
30   C        34.0663   50.5011   39.9872  C     
31   C        33.0114   52.8078   40.3151  C     
32   C        28.3618   53.2577   34.0876  C     
33   C        20.2073   42.4739   30.3295  C     
34   C        28.8466   54.0765   32.8589  C     
35   C        20.0976   44.0310   32.4067  C     
36   C        19.7460   43.8543   30.9021  C     
37   C        33.6401   52.8951   41.7303  C     
38   C        34.6698   50.5728   41.4157  C     
39   C        34.9265   52.0364   41.8478  C     
40   H        24.5938   50.3108   34.9449  H     
41   H        26.5191   51.2853   35.7038  H     
42   H        24.2129   47.6994   34.0609  H     
43   H        29.0720   49.9923   35.2409  H     
44   H        23.9321   48.2941   30.6029  H     
45   H        24.1999   47.0399   31.7824  H     
46   H        30.7792   50.8882   36.4471  H     
47   H        22.2520   46.0381   32.7890  H     
48   H        23.9203   48.3735   36.3776  H     
49   H        25.5348   47.6765   36.2140  H     
50   H        20.4063   40.4944   28.5753  H     
51   H        18.8420   39.9148   28.6201  H     
52   H        19.8049   39.8252   29.9722  H     
53   H        26.5501   55.2284   32.0533  H     
54   H        26.7505   56.7516   32.7109  H     
55   H        26.5252   55.4260   33.7165  H     
56   H        30.7384   52.8984   38.3084  H     
57   H        30.0903   51.4490   39.1045  H     
58   H        26.3766   49.4284   37.2773  H     
59   H        19.4068   49.5061   30.9429  H     
60   H        32.0247   50.8963   40.5689  H     
61   H        21.8013   49.7398   30.8410  H     
62   H        30.0631   51.8980   34.1275  H     
63   H        28.6927   51.3077   33.1960  H     
64   H        18.4077   47.5426   31.9224  H     
65   H        32.1094   50.1676   38.1783  H     
66   H        32.8133   51.7232   37.7199  H     
67   H        18.7672   42.2781   28.7154  H     
68   H        18.2391   41.5563   30.2456  H     
69   H        28.8235   56.0650   31.9995  H     
70   H        28.7897   56.0599   33.7678  H     
71   H        19.9060   45.3612   34.0926  H     
72   H        18.5436   45.4081   32.9891  H     
73   H        33.8676   49.4545   39.7475  H     
74   H        34.7991   50.8790   39.2706  H     
75   H        33.6811   53.2873   39.5926  H     
76   H        32.0732   53.3698   40.3269  H     
77   H        27.2733   53.1884   34.0514  H     
78   H        28.6378   53.7923   34.9975  H     
79   H        20.5770   41.8328   31.1314  H     
80   H        21.0450   42.6403   29.6439  H     
81   H        28.4846   53.6036   31.9392  H     
82   H        29.9385   54.0568   32.8388  H     
83   H        21.1783   43.9205   32.5137  H     
84   H        19.6294   43.2204   32.9667  H     
85   H        20.2302   44.6563   30.3298  H     
86   H        18.6642   43.9908   30.7813  H     
87   H        33.8812   53.9328   41.9562  H     
88   H        32.9137   52.5493   42.4674  H     
89   H        33.9816   50.0969   42.1219  H     
90   H        35.6112   50.0142   41.4419  H     
91   H        35.7114   52.4643   41.2199  H     
92   H        35.2814   52.0468   42.8828  H     
@<TRIPOS>BOND
     1    1    2 1
     2    1    3 am
     3    1    8 2
     4    2    4 1
     5    2   15 1
     6    3    7 1
     7    4    5 am
     8    5   10 2
     9    5   11 1
    10    6    7 1
    11    6    9 2
    12    6   12 am
    13    7   24 1
    14   11   13 1
    15   12   19 1
    16   13   14 2
    17   13   23 1
    18   14   16 1
    19   15   20 1
    20   16   25 2
    21   16   29 1
    22   17   27 1
    23   18   28 1
    24   19   26 1
    25   21   23 2
    26   21   25 1
    27   22   26 1
    28   22   30 1
    29   22   31 1
    30   24   32 1
    31   27   33 1
    32   28   34 1
    33   29   35 1
    34   30   38 1
    35   31   37 1
    36   32   34 1
    37   33   36 1
    38   35   36 1
    39   37   39 1
    40   38   39 1
    41    2   40 1
    42    3   41 1
    43    4   42 1
    44    7   43 1
    45   11   44 1
    46   11   45 1
    47   12   46 1
    48   14   47 1
    49   15   48 1
    50   15   49 1
    51   17   50 1
    52   17   51 1
    53   17   52 1
    54   18   53 1
    55   18   54 1
    56   18   55 1
    57   19   56 1
    58   19   57 1
    59   20   58 1
    60   21   59 1
    61   22   60 1
    62   23   61 1
    63   24   62 1
    64   24   63 1
    65   25   64 1
    66   26   65 1
    67   26   66 1
    68   27   67 1
    69   27   68 1
    70   28   69 1
    71   28   70 1
    72   29   71 1
    73   29   72 1
    74   30   73 1
    75   30   74 1
    76   31   75 1
    77   31   76 1
    78   32   77 1
    79   32   78 1
    80   33   79 1
    81   33   80 1
    82   34   81 1
    83   34   82 1
    84   35   83 1
    85   35   84 1
    86   36   85 1
    87   36   86 1
    88   37   87 1
    89   37   88 1
    90   38   89 1
    91   38   90 1
    92   39   91 1
    93   39   92 1
@<TRIPOS>PROPERTY_DATA
  Total_Score	| 18.3198
  Crash		| -2.0023
  Polar		| 12.7157
  FragIndex	| 1
  FragRMSD	| 0.616

