@<TRIPOS>MOLECULE
BindingDB_50057686
 88 88 0 0 0
SMALL
NO_CHARGES


@<TRIPOS>ATOM
1    C        26.4969   49.5958   34.7017  C     
2    C        25.0915   49.3480   35.0170  C     
3    N        27.0937   50.6937   35.1540  N     
4    N        24.4592   48.5102   34.0297  N     
5    C        28.9486   51.5818   36.4262  C     
6    C        24.0639   48.8390   32.8060  C     
7    C        28.5144   50.9735   35.1643  C     
8    O        27.1409   48.7232   34.1298  O     
9    O        28.1144   51.9339   37.2588  O     
10   O        24.1996   49.9793   32.3735  O     
11   N        30.2370   51.8477   36.6212  N     
12   C        24.9787   48.6433   36.3993  C     
13   N        19.4677   40.3535   29.2788  N     
14   N        27.0410   55.8730   32.8230  N     
15   C        30.7445   52.7157   37.6460  C     
16   C        32.7226   51.7435   39.1168  C     
17   O        25.4390   49.4794   37.4587  O     
18   C        23.5046   47.8078   31.9531  C     
19   C        28.8979   51.8420   33.9264  C     
20   C        32.2739   52.5029   37.9033  C     
21   C        18.7507   41.6214   29.4527  C     
22   C        28.4981   55.6632   32.8599  C     
23   C        34.1116   51.7279   39.4052  C     
24   C        31.8606   51.0501   39.9960  C     
25   C        22.2207   47.1491   32.5268  C     
26   C        28.3105   53.2874   33.9106  C     
27   C        18.9552   42.2174   30.8655  C     
28   C        28.8928   54.1689   32.7754  C     
29   C        20.8907   47.7712   31.9974  C     
30   C        19.7384   46.7477   31.8176  C     
31   C        17.7758   45.4169   32.9029  C     
32   C        18.0477   43.9133   32.5813  C     
33   C        18.1753   43.5456   31.0792  C     
34   C        19.0467   46.2947   33.1290  C     
35   C        32.3621   50.3697   41.1222  C     
36   C        34.6207   51.0493   40.5283  C     
37   C        33.7436   50.3729   41.3903  C     
38   H        24.5493   50.2988   35.0912  H     
39   H        26.5192   51.3568   35.5755  H     
40   H        24.3623   47.5749   34.2748  H     
41   H        29.0585   50.0263   35.0725  H     
42   H        30.8614   51.5140   35.9474  H     
43   H        23.9361   48.3977   36.6036  H     
44   H        25.5553   47.7144   36.4067  H     
45   H        20.4227   40.5339   28.9666  H     
46   H        18.9799   39.7896   28.5846  H     
47   H        19.4992   39.8267   30.1523  H     
48   H        26.6581   55.3839   32.0114  H     
49   H        26.8600   56.8775   32.7294  H     
50   H        26.6022   55.5151   33.6801  H     
51   H        30.5937   53.7403   37.2994  H     
52   H        30.1693   52.5850   38.5633  H     
53   H        26.3893   49.2563   37.5647  H     
54   H        23.2898   48.2140   30.9578  H     
55   H        24.2587   47.0295   31.8038  H     
56   H        29.9886   51.9229   33.8680  H     
57   H        28.5804   51.3216   33.0204  H     
58   H        32.7268   52.0178   37.0293  H     
59   H        32.7243   53.5021   37.9713  H     
60   H        19.0980   42.3198   28.6860  H     
61   H        17.6836   41.4372   29.2948  H     
62   H        28.9292   56.1933   32.0063  H     
63   H        28.8989   56.1119   33.7732  H     
64   H        34.7702   52.2231   38.8037  H     
65   H        30.8557   51.0311   39.8417  H     
66   H        22.2470   46.0933   32.2564  H     
67   H        22.2319   47.1949   33.6191  H     
68   H        27.2245   53.2434   33.8037  H     
69   H        28.5342   53.7674   34.8691  H     
70   H        18.6252   41.4750   31.6008  H     
71   H        20.0230   42.4010   31.0272  H     
72   H        28.5736   53.7686   31.8072  H     
73   H        29.9837   54.1105   32.8135  H     
74   H        20.5712   48.5713   32.6692  H     
75   H        21.0677   48.2243   31.0159  H     
76   H        18.9748   47.1912   31.1725  H     
77   H        20.1301   45.8830   31.2919  H     
78   H        17.1456   45.8672   32.1294  H     
79   H        17.1914   45.4594   33.8282  H     
80   H        18.9376   43.5758   33.1159  H     
81   H        17.2072   43.3320   32.9713  H     
82   H        18.6926   44.3323   30.5294  H     
83   H        17.1684   43.4531   30.6640  H     
84   H        19.7488   45.7533   33.7691  H     
85   H        18.7527   47.1954   33.6787  H     
86   H        31.7229   49.8502   41.7309  H     
87   H        35.6263   51.0628   40.7338  H     
88   H        34.0983   49.8834   42.2229  H     
@<TRIPOS>BOND
     1    1    2 1
     2    1    3 am
     3    1    8 2
     4    2    4 1
     5    2   12 1
     6    3    7 1
     7    4    6 am
     8    5    7 1
     9    5    9 2
    10    5   11 am
    11    6   10 2
    12    6   18 1
    13    7   19 1
    14   11   15 1
    15   12   17 1
    16   13   21 1
    17   14   22 1
    18   15   20 1
    19   16   20 1
    20   16   23 2
    21   16   24 1
    22   18   25 1
    23   19   26 1
    24   21   27 1
    25   22   28 1
    26   23   36 1
    27   24   35 2
    28   25   29 1
    29   26   28 1
    30   27   33 1
    31   29   30 1
    32   30   34 1
    33   31   32 1
    34   31   34 1
    35   32   33 1
    36   35   37 1
    37   36   37 2
    38    2   38 1
    39    3   39 1
    40    4   40 1
    41    7   41 1
    42   11   42 1
    43   12   43 1
    44   12   44 1
    45   13   45 1
    46   13   46 1
    47   13   47 1
    48   14   48 1
    49   14   49 1
    50   14   50 1
    51   15   51 1
    52   15   52 1
    53   17   53 1
    54   18   54 1
    55   18   55 1
    56   19   56 1
    57   19   57 1
    58   20   58 1
    59   20   59 1
    60   21   60 1
    61   21   61 1
    62   22   62 1
    63   22   63 1
    64   23   64 1
    65   24   65 1
    66   25   66 1
    67   25   67 1
    68   26   68 1
    69   26   69 1
    70   27   70 1
    71   27   71 1
    72   28   72 1
    73   28   73 1
    74   29   74 1
    75   29   75 1
    76   30   76 1
    77   30   77 1
    78   31   78 1
    79   31   79 1
    80   32   80 1
    81   32   81 1
    82   33   82 1
    83   33   83 1
    84   34   84 1
    85   34   85 1
    86   35   86 1
    87   36   87 1
    88   37   88 1
@<TRIPOS>PROPERTY_DATA
  Total_Score	| 17.5298
  Crash		| -2.2605
  Polar		| 12.7741
  FragIndex	| 1
  FragRMSD	| 0.633

