@<TRIPOS>MOLECULE
BindingDB_50057680
 96 98 0 0 0
SMALL
NO_CHARGES


@<TRIPOS>ATOM
1    C        26.4198   49.5417   34.7058  C     
2    C        25.0104   49.2876   34.9801  C     
3    N        26.9987   50.6457   35.1533  N     
4    N        24.3659   48.4941   33.9649  N     
5    C        24.0012   48.8923   32.7528  C     
6    C        28.8697   51.6270   36.3402  C     
7    C        28.4003   50.9653   35.1236  C     
8    O        27.0675   48.6753   34.1131  O     
9    O        28.0747   51.9887   37.2039  O     
10   O        24.1985   50.0463   32.3880  O     
11   N        30.1567   51.9477   36.4208  N     
12   C        23.4360   47.9387   31.8056  C     
13   C        22.0406   47.5291   32.1370  C     
14   C        17.1179   44.9037   31.2382  C     
15   C        19.3602   46.7398   32.7496  C     
16   C        16.2740   44.6691   28.5045  C     
17   C        24.8719   48.5665   36.3453  C     
18   C        17.9641   46.3920   33.1547  C     
19   C        17.4820   44.9906   32.6842  C     
20   N        15.3658   43.2027   26.7567  N     
21   C        21.7793   46.5490   33.1221  C     
22   C        20.9397   48.0881   31.4438  C     
23   N        27.0127   55.9074   32.8110  N     
24   C        20.4606   46.1640   33.4276  C     
25   C        16.1577   45.7878   30.6929  C     
26   C        19.6199   47.6965   31.7419  C     
27   C        17.6486   43.9007   30.3949  C     
28   C        15.7499   45.6778   29.3450  C     
29   C        17.2239   43.7768   29.0532  C     
30   C        30.7497   52.9203   37.2940  C     
31   O        25.3545   49.3817   37.4122  O     
32   C        32.3721   51.4487   38.7812  C     
33   C        28.6966   51.8048   33.8427  C     
34   C        15.8562   44.5467   27.0807  C     
35   C        32.2087   52.5344   37.6688  C     
36   C        28.4522   55.6522   32.9128  C     
37   C        33.8911   51.1671   39.0345  C     
38   C        31.6452   51.8701   40.0999  C     
39   C        28.0888   53.2396   33.8209  C     
40   C        28.8026   54.1508   32.7866  C     
41   C        31.9235   50.9168   41.2913  C     
42   C        34.1444   50.2276   40.2406  C     
43   C        33.4451   50.7336   41.5251  C     
44   H        24.4650   50.2341   35.0622  H     
45   H        26.4201   51.3048   35.5795  H     
46   H        24.1686   47.5716   34.1950  H     
47   H        28.9871   50.0430   35.0445  H     
48   H        30.7221   51.6446   35.6864  H     
49   H        23.4610   48.3633   30.7957  H     
50   H        24.0795   47.0559   31.7699  H     
51   H        23.8208   48.3507   36.5420  H     
52   H        25.4192   47.6197   36.3435  H     
53   H        17.9188   46.4146   34.2517  H     
54   H        17.2492   47.1445   32.7949  H     
55   H        16.5912   44.7255   33.2593  H     
56   H        18.2420   44.2457   32.9330  H     
57   H        16.1314   42.5303   26.8069  H     
58   H        14.9926   43.2102   25.8048  H     
59   H        14.6229   42.9321   27.4063  H     
60   H        22.5494   46.1054   33.6267  H     
61   H        21.0941   48.7856   30.7123  H     
62   H        26.6286   55.3888   32.0194  H     
63   H        26.8683   56.9104   32.6560  H     
64   H        26.5388   55.6226   33.6755  H     
65   H        20.3006   45.4693   34.1634  H     
66   H        15.7344   46.5063   31.2870  H     
67   H        18.8483   48.1213   31.2192  H     
68   H        18.3377   43.2353   30.7579  H     
69   H        15.0559   46.3383   28.9855  H     
70   H        17.6195   43.0289   28.4756  H     
71   H        30.7876   53.8653   36.7373  H     
72   H        30.1642   53.0832   38.2070  H     
73   H        26.2924   49.1178   37.5376  H     
74   H        31.9194   50.5167   38.4230  H     
75   H        29.7828   51.8732   33.7258  H     
76   H        28.3280   51.2560   32.9684  H     
77   H        15.0613   45.2546   26.8427  H     
78   H        16.7014   44.7698   26.4286  H     
79   H        32.7267   52.1888   36.7658  H     
80   H        32.7276   53.4413   37.9978  H     
81   H        28.9520   56.1944   32.1088  H     
82   H        28.8099   56.0485   33.8657  H     
83   H        34.3293   50.7069   38.1430  H     
84   H        34.4186   52.1096   39.2141  H     
85   H        31.9589   52.8829   40.3838  H     
86   H        30.5626   51.8841   39.9240  H     
87   H        27.0223   53.1751   33.5780  H     
88   H        28.1805   53.6915   34.8123  H     
89   H        28.5604   53.8021   31.7786  H     
90   H        29.8847   54.0646   32.9210  H     
91   H        31.4647   51.3333   42.1932  H     
92   H        31.4581   49.9444   41.0975  H     
93   H        33.7894   49.2201   40.0038  H     
94   H        35.2157   50.1718   40.4351  H     
95   H        33.8847   51.6893   41.8332  H     
96   H        33.6051   50.0122   42.3310  H     
@<TRIPOS>BOND
     1    1    2 1
     2    1    3 am
     3    1    8 2
     4    2    4 1
     5    2   17 1
     6    3    7 1
     7    4    5 am
     8    5   10 2
     9    5   12 1
    10    6    7 1
    11    6    9 2
    12    6   11 am
    13    7   33 1
    14   11   30 1
    15   12   13 1
    16   13   21 1
    17   13   22 2
    18   14   19 1
    19   14   25 1
    20   14   27 2
    21   15   18 1
    22   15   24 1
    23   15   26 2
    24   16   28 1
    25   16   29 2
    26   16   34 1
    27   17   31 1
    28   18   19 1
    29   20   34 1
    30   21   24 2
    31   22   26 1
    32   23   36 1
    33   25   28 2
    34   27   29 1
    35   30   35 1
    36   32   35 1
    37   32   37 1
    38   32   38 1
    39   33   39 1
    40   36   40 1
    41   37   42 1
    42   38   41 1
    43   39   40 1
    44   41   43 1
    45   42   43 1
    46    2   44 1
    47    3   45 1
    48    4   46 1
    49    7   47 1
    50   11   48 1
    51   12   49 1
    52   12   50 1
    53   17   51 1
    54   17   52 1
    55   18   53 1
    56   18   54 1
    57   19   55 1
    58   19   56 1
    59   20   57 1
    60   20   58 1
    61   20   59 1
    62   21   60 1
    63   22   61 1
    64   23   62 1
    65   23   63 1
    66   23   64 1
    67   24   65 1
    68   25   66 1
    69   26   67 1
    70   27   68 1
    71   28   69 1
    72   29   70 1
    73   30   71 1
    74   30   72 1
    75   31   73 1
    76   32   74 1
    77   33   75 1
    78   33   76 1
    79   34   77 1
    80   34   78 1
    81   35   79 1
    82   35   80 1
    83   36   81 1
    84   36   82 1
    85   37   83 1
    86   37   84 1
    87   38   85 1
    88   38   86 1
    89   39   87 1
    90   39   88 1
    91   40   89 1
    92   40   90 1
    93   41   91 1
    94   41   92 1
    95   42   93 1
    96   42   94 1
    97   43   95 1
    98   43   96 1
@<TRIPOS>PROPERTY_DATA
  Total_Score	| 19.9993
  Crash		| -2.6279
  Polar		| 11.3952
  FragIndex	| 1
  FragRMSD	| 0.207

