@<TRIPOS>MOLECULE
BindingDB_50057682
 95 96 0 0 0
SMALL
NO_CHARGES


@<TRIPOS>ATOM
1    C        26.4539   49.5995   34.7422  C     
2    C        25.0445   49.3916   35.0502  C     
3    N        27.0758   50.6983   35.1430  N     
4    N        24.3612   48.7031   33.9921  N     
5    C        28.9355   51.5126   36.4533  C     
6    C        24.3194   49.0410   32.7057  C     
7    C        28.4989   50.9567   35.1707  C     
8    O        27.0842   48.6830   34.2270  O     
9    O        28.1094   51.8843   37.2857  O     
10   O        24.8213   50.0842   32.3114  O     
11   N        30.2366   51.6646   36.6903  N     
12   C        22.1134   40.9234   32.0103  C     
13   C        20.4091   43.1795   31.5923  C     
14   C        24.9044   48.5992   36.3774  C     
15   N        24.0826   40.1874   33.2243  N     
16   N        27.0233   55.8938   32.8061  N     
17   C        21.1545   41.2923   32.9837  C     
18   C        20.2956   42.3830   32.7596  C     
19   C        22.1731   41.6587   30.8036  C     
20   C        21.3341   42.7696   30.6029  C     
21   C        30.8616   52.2117   37.8563  C     
22   O        25.3691   49.3661   37.4893  O     
23   C        23.7053   48.1471   31.7384  C     
24   C        32.9435   51.8984   39.4223  C     
25   C        28.8890   51.8492   33.9525  C     
26   C        23.0387   39.7912   32.2688  C     
27   C        32.1458   51.4035   38.1733  C     
28   C        28.4637   55.6338   32.9100  C     
29   C        19.5280   44.3685   31.3849  C     
30   C        32.1140   51.8066   40.7459  C     
31   C        34.2852   51.1063   39.5646  C     
32   C        22.1502   48.1148   31.7637  C     
33   C        28.2184   53.2497   33.9078  C     
34   C        28.8157   54.1319   32.7823  C     
35   C        19.4005   45.3350   32.6223  C     
36   C        19.9690   46.7922   32.4508  C     
37   C        21.5332   46.9338   32.5749  C     
38   C        35.0997   51.5300   40.8197  C     
39   C        32.9377   52.2294   41.9938  C     
40   C        34.2516   51.4150   42.1105  C     
41   H        24.5554   50.3603   35.2017  H     
42   H        26.5179   51.3937   35.5291  H     
43   H        23.8875   47.8985   34.2392  H     
44   H        29.0489   50.0150   35.0582  H     
45   H        30.8338   51.3999   35.9702  H     
46   H        23.8476   48.3813   36.5422  H     
47   H        25.4499   47.6524   36.3221  H     
48   H        24.7062   40.8803   32.7947  H     
49   H        24.6197   39.3558   33.4845  H     
50   H        23.6562   40.5874   34.0684  H     
51   H        26.6446   55.3828   32.0016  H     
52   H        26.8888   56.9000   32.6578  H     
53   H        26.5424   55.5956   33.6658  H     
54   H        21.0817   40.7687   33.8610  H     
55   H        19.6140   42.6217   33.4805  H     
56   H        22.8312   41.3901   30.0653  H     
57   H        21.4218   43.2922   29.7296  H     
58   H        31.1357   53.2490   37.6315  H     
59   H        30.1969   52.2126   38.7204  H     
60   H        26.2740   49.0358   37.6601  H     
61   H        24.0301   48.4371   30.7331  H     
62   H        24.0763   47.1248   31.8952  H     
63   H        33.2102   52.9506   39.2597  H     
64   H        29.9758   51.9755   33.9518  H     
65   H        28.6375   51.3025   33.0367  H     
66   H        22.4841   38.9456   32.6844  H     
67   H        23.5354   39.4535   31.3547  H     
68   H        31.8848   50.3482   38.3069  H     
69   H        32.8007   51.4761   37.2969  H     
70   H        28.9543   56.1803   32.0970  H     
71   H        28.8340   56.0370   33.8579  H     
72   H        19.8693   44.9343   30.5111  H     
73   H        18.5315   43.9805   31.1342  H     
74   H        31.2444   52.4645   40.6843  H     
75   H        31.7507   50.7832   40.8863  H     
76   H        34.0796   50.0312   39.6274  H     
77   H        34.9120   51.2753   38.6861  H     
78   H        21.7791   49.0665   32.1664  H     
79   H        21.8112   48.0430   30.7261  H     
80   H        27.1453   53.1264   33.7451  H     
81   H        28.3663   53.7478   34.8685  H     
82   H        28.4786   53.7678   31.8088  H     
83   H        29.9085   54.0551   32.8118  H     
84   H        18.3272   45.4259   32.8508  H     
85   H        19.8478   44.8841   33.5169  H     
86   H        19.6099   47.2329   31.5080  H     
87   H        19.5209   47.4133   33.2417  H     
88   H        22.0228   45.9998   32.2813  H     
89   H        21.7871   47.1044   33.6302  H     
90   H        35.9816   50.8900   40.9219  H     
91   H        35.4435   52.5622   40.7023  H     
92   H        33.1731   53.2956   41.9276  H     
93   H        32.3293   52.0750   42.8908  H     
94   H        34.0130   50.3600   42.2917  H     
95   H        34.8280   51.7846   42.9636  H     
@<TRIPOS>BOND
     1    1    2 1
     2    1    3 am
     3    1    8 2
     4    2    4 1
     5    2   14 1
     6    3    7 1
     7    4    6 am
     8    5    7 1
     9    5    9 2
    10    5   11 am
    11    6   10 2
    12    6   23 1
    13    7   25 1
    14   11   21 1
    15   12   17 2
    16   12   19 1
    17   12   26 1
    18   13   18 2
    19   13   20 1
    20   13   29 1
    21   14   22 1
    22   15   26 1
    23   16   28 1
    24   17   18 1
    25   19   20 2
    26   21   27 1
    27   23   32 1
    28   24   27 1
    29   24   30 1
    30   24   31 1
    31   25   33 1
    32   28   34 1
    33   29   35 1
    34   30   39 1
    35   31   38 1
    36   32   37 1
    37   33   34 1
    38   35   36 1
    39   36   37 1
    40   38   40 1
    41   39   40 1
    42    2   41 1
    43    3   42 1
    44    4   43 1
    45    7   44 1
    46   11   45 1
    47   14   46 1
    48   14   47 1
    49   15   48 1
    50   15   49 1
    51   15   50 1
    52   16   51 1
    53   16   52 1
    54   16   53 1
    55   17   54 1
    56   18   55 1
    57   19   56 1
    58   20   57 1
    59   21   58 1
    60   21   59 1
    61   22   60 1
    62   23   61 1
    63   23   62 1
    64   24   63 1
    65   25   64 1
    66   25   65 1
    67   26   66 1
    68   26   67 1
    69   27   68 1
    70   27   69 1
    71   28   70 1
    72   28   71 1
    73   29   72 1
    74   29   73 1
    75   30   74 1
    76   30   75 1
    77   31   76 1
    78   31   77 1
    79   32   78 1
    80   32   79 1
    81   33   80 1
    82   33   81 1
    83   34   82 1
    84   34   83 1
    85   35   84 1
    86   35   85 1
    87   36   86 1
    88   36   87 1
    89   37   88 1
    90   37   89 1
    91   38   90 1
    92   38   91 1
    93   39   92 1
    94   39   93 1
    95   40   94 1
    96   40   95 1
@<TRIPOS>PROPERTY_DATA
  Total_Score	| 17.8777
  Crash		| -1.6940
  Polar		| 9.4089
  FragIndex	| 1
  FragRMSD	| 0.230

