@<TRIPOS>MOLECULE
BindingDB_50057703
 92 94 0 0 0
SMALL
NO_CHARGES


@<TRIPOS>ATOM
1    C        26.6058   49.5802   34.7070  C     
2    C        25.2010   49.2952   34.9767  C     
3    N        27.1240   50.7389   35.0964  N     
4    C        17.5154   47.6438   31.4101  C     
5    C        16.3621   47.7500   31.1148  C     
6    N        24.6573   48.4668   33.9386  N     
7    C        23.4191   47.9718   33.8587  C     
8    C        28.9167   51.6101   36.4321  C     
9    C        28.5190   51.1081   35.1252  C     
10   O        27.3064   48.6758   34.2672  O     
11   O        28.0651   51.9844   37.2432  O     
12   O        22.6420   48.0397   34.8170  O     
13   C        18.7795   47.5434   31.7276  C     
14   C        15.1064   47.8672   30.7938  C     
15   N        30.2164   51.7175   36.7284  N     
16   C        23.0202   47.3079   32.6273  C     
17   C        21.5592   47.3579   32.3317  C     
18   C        12.3592   48.1302   30.0960  C     
19   C        25.0796   48.6838   36.4025  C     
20   C        19.4584   46.3059   31.6038  C     
21   C        19.4985   48.6858   32.1479  C     
22   C        14.3834   46.7521   30.3186  C     
23   C        14.4532   49.1154   30.9245  C     
24   N        10.0148   47.4958   30.5080  N     
25   N        26.1125   55.5816   32.7996  N     
26   C        20.8371   46.2220   31.8928  C     
27   C        20.8743   48.5895   32.4348  C     
28   C        13.0230   46.8867   29.9823  C     
29   C        13.0917   49.2380   30.5909  C     
30   C        30.8005   52.1576   37.9459  C     
31   O        25.5238   49.6010   37.4019  O     
32   C        32.9199   51.8981   39.4723  C     
33   C        28.8120   52.1182   33.9723  C     
34   C        10.9447   48.2522   29.6614  C     
35   C        32.1062   51.3750   38.2497  C     
36   C        27.5703   55.7295   32.8758  C     
37   C        32.1267   51.7898   40.8131  C     
38   C        34.2880   51.1565   39.5957  C     
39   C        27.8980   53.3814   33.9459  C     
40   C        28.3070   54.3678   32.8156  C     
41   C        35.1135   51.6572   40.8081  C     
42   C        32.9616   52.2782   42.0275  C     
43   C        34.3166   51.5356   42.1284  C     
44   H        24.6344   50.2340   34.9929  H     
45   H        26.5018   51.3886   35.4604  H     
46   H        25.2138   48.3540   33.1495  H     
47   H        29.1316   50.2180   34.9282  H     
48   H        30.8310   51.4685   36.0165  H     
49   H        23.5297   47.7977   31.7845  H     
50   H        23.3665   46.2689   32.6502  H     
51   H        24.0336   48.4612   36.6352  H     
52   H        25.6588   47.7580   36.4933  H     
53   H        18.9608   45.4636   31.2893  H     
54   H        19.0289   49.5931   32.2458  H     
55   H        14.8344   45.8338   30.2092  H     
56   H        14.9584   49.9380   31.2607  H     
57   H        10.3691   46.5450   30.6488  H     
58   H         9.0993   47.4495   30.0431  H     
59   H         9.9102   47.9614   31.4150  H     
60   H        25.8776   54.9794   32.0048  H     
61   H        25.6766   56.4990   32.6691  H     
62   H        25.7726   55.1536   33.6654  H     
63   H        21.3077   45.3211   31.7845  H     
64   H        21.3802   49.4351   32.7239  H     
65   H        12.5184   46.0619   29.6344  H     
66   H        12.6398   50.1502   30.6910  H     
67   H        31.0395   53.2183   37.8304  H     
68   H        30.1003   52.0651   38.7789  H     
69   H        26.5010   49.4934   37.4510  H     
70   H        33.1375   52.9562   39.2871  H     
71   H        29.8625   52.4401   34.0454  H     
72   H        28.7022   51.5840   33.0182  H     
73   H        10.6185   49.2942   29.6501  H     
74   H        10.8724   47.8684   28.6428  H     
75   H        31.8606   50.3162   38.3842  H     
76   H        32.7302   51.4512   37.3523  H     
77   H        27.8920   56.3506   32.0346  H     
78   H        27.8189   56.2535   33.8050  H     
79   H        31.2209   52.3972   40.7629  H     
80   H        31.8267   50.7504   40.9813  H     
81   H        34.1179   50.0803   39.6956  H     
82   H        34.8766   51.3188   38.6880  H     
83   H        26.8537   53.0815   33.7806  H     
84   H        27.9677   53.8938   34.9176  H     
85   H        28.1028   53.9067   31.8411  H     
86   H        29.3833   54.5562   32.8783  H     
87   H        36.0318   51.0709   40.8922  H     
88   H        35.3980   52.7024   40.6490  H     
89   H        33.1432   53.3520   41.9324  H     
90   H        32.3897   52.1155   42.9435  H     
91   H        34.1416   50.4777   42.3515  H     
92   H        34.9034   51.9584   42.9497  H     
@<TRIPOS>BOND
     1    1    2 1
     2    1    3 am
     3    1   10 2
     4    2    6 1
     5    2   19 1
     6    3    9 1
     7    4    5 3
     8    4   13 1
     9    5   14 1
    10    6    7 am
    11    7   12 2
    12    7   16 1
    13    8    9 1
    14    8   11 2
    15    8   15 am
    16    9   33 1
    17   13   20 1
    18   13   21 2
    19   14   22 2
    20   14   23 1
    21   15   30 1
    22   16   17 1
    23   17   26 1
    24   17   27 2
    25   18   28 2
    26   18   29 1
    27   18   34 1
    28   19   31 1
    29   20   26 2
    30   21   27 1
    31   22   28 1
    32   23   29 2
    33   24   34 1
    34   25   36 1
    35   30   35 1
    36   32   35 1
    37   32   37 1
    38   32   38 1
    39   33   39 1
    40   36   40 1
    41   37   42 1
    42   38   41 1
    43   39   40 1
    44   41   43 1
    45   42   43 1
    46    2   44 1
    47    3   45 1
    48    6   46 1
    49    9   47 1
    50   15   48 1
    51   16   49 1
    52   16   50 1
    53   19   51 1
    54   19   52 1
    55   20   53 1
    56   21   54 1
    57   22   55 1
    58   23   56 1
    59   24   57 1
    60   24   58 1
    61   24   59 1
    62   25   60 1
    63   25   61 1
    64   25   62 1
    65   26   63 1
    66   27   64 1
    67   28   65 1
    68   29   66 1
    69   30   67 1
    70   30   68 1
    71   31   69 1
    72   32   70 1
    73   33   71 1
    74   33   72 1
    75   34   73 1
    76   34   74 1
    77   35   75 1
    78   35   76 1
    79   36   77 1
    80   36   78 1
    81   37   79 1
    82   37   80 1
    83   38   81 1
    84   38   82 1
    85   39   83 1
    86   39   84 1
    87   40   85 1
    88   40   86 1
    89   41   87 1
    90   41   88 1
    91   42   89 1
    92   42   90 1
    93   43   91 1
    94   43   92 1
@<TRIPOS>PROPERTY_DATA
  Total_Score	| 14.2633
  Crash		| -1.6375
  Polar		| 8.9163
  FragIndex	| 1
  FragRMSD	| 0.820

