@<TRIPOS>MOLECULE
BindingDB_50057684
 95 96 0 0 0
SMALL
NO_CHARGES


@<TRIPOS>ATOM
1    C        26.5694   49.5232   34.7361  C     
2    C        25.1564   49.2832   34.9880  C     
3    N        27.1380   50.6365   35.1788  N     
4    N        24.6014   48.4633   33.9486  N     
5    C        24.1729   48.8618   32.7609  C     
6    C        28.9657   51.4943   36.5018  C     
7    C        28.5510   50.9283   35.2166  C     
8    O        27.2320   48.6386   34.1982  O     
9    O        28.1242   51.8835   37.3134  O     
10   O        24.2276   50.0405   32.4245  O     
11   N        30.2596   51.6311   36.7515  N     
12   C        23.6436   47.8979   31.8140  C     
13   C        22.2189   47.5762   32.0950  C     
14   C        19.5001   46.8196   32.5235  C     
15   C        24.9579   48.5915   36.3591  C     
16   N        19.5044   40.4752   29.3361  N     
17   C        21.1767   48.1920   31.3665  C     
18   N        27.0190   55.8900   32.8129  N     
19   C        21.8799   46.6283   33.0891  C     
20   C        20.5387   46.2520   33.2914  C     
21   C        19.8347   47.8287   31.5873  C     
22   C        30.8782   52.1833   37.9181  C     
23   O        25.4022   49.4312   37.4232  O     
24   C        32.9782   51.9397   39.4831  C     
25   C        28.9110   51.8402   34.0091  C     
26   C        32.1709   51.3977   38.2573  C     
27   C        19.2195   41.8560   29.7591  C     
28   C        28.4523   55.6145   32.9688  C     
29   C        18.0830   46.3981   32.7168  C     
30   C        32.1769   51.8390   40.8210  C     
31   C        34.3492   51.2028   39.6124  C     
32   C        28.2501   53.2448   34.0090  C     
33   C        17.9207   41.9182   30.5971  C     
34   C        28.8009   54.1151   32.8542  C     
35   C        17.3963   45.7608   31.4725  C     
36   C        17.7647   43.1697   31.5100  C     
37   C        18.0823   44.5274   30.8239  C     
38   C        35.1703   51.6848   40.8392  C     
39   C        33.0050   52.3058   42.0482  C     
40   C        34.3558   51.5554   42.1506  C     
41   H        24.6187   50.2377   35.0395  H     
42   H        26.5517   51.3054   35.5757  H     
43   H        24.5697   47.5073   34.1267  H     
44   H        29.1291   50.0057   35.0952  H     
45   H        30.8659   51.3475   36.0474  H     
46   H        23.7601   48.2911   30.7979  H     
47   H        24.2274   46.9709   31.8479  H     
48   H        23.8971   48.3916   36.5156  H     
49   H        25.4948   47.6388   36.4028  H     
50   H        19.6680   39.8960   30.1611  H     
51   H        20.3401   40.4567   28.7481  H     
52   H        18.7110   40.0922   28.8171  H     
53   H        21.3850   48.9010   30.6585  H     
54   H        26.6492   55.3672   32.0134  H     
55   H        26.9045   56.8921   32.6387  H     
56   H        26.5084   55.6244   33.6622  H     
57   H        22.6100   46.1840   33.6496  H     
58   H        20.3266   45.5549   34.0138  H     
59   H        19.1070   48.3026   31.0529  H     
60   H        31.1386   53.2206   37.6937  H     
61   H        30.1935   52.1809   38.7689  H     
62   H        26.3470   49.1912   37.5652  H     
63   H        33.1944   52.9968   39.2960  H     
64   H        29.9934   51.9650   33.9824  H     
65   H        28.6326   51.3156   33.0891  H     
66   H        31.9162   50.3482   38.4238  H     
67   H        32.8167   51.4424   37.3749  H     
68   H        20.0626   42.2207   30.3485  H     
69   H        19.1210   42.4717   28.8630  H     
70   H        28.9793   56.1596   32.1864  H     
71   H        28.7744   56.0054   33.9404  H     
72   H        18.0002   45.6970   33.5485  H     
73   H        17.5116   47.2851   33.0019  H     
74   H        31.2813   52.4612   40.7663  H     
75   H        31.8574   50.8057   40.9829  H     
76   H        34.1850   50.1231   39.6992  H     
77   H        34.9483   51.3750   38.7127  H     
78   H        27.1659   53.1522   33.9025  H     
79   H        28.4553   53.7388   34.9601  H     
80   H        17.0672   41.8743   29.9152  H     
81   H        17.8821   41.0284   31.2334  H     
82   H        28.4236   53.7320   31.9021  H     
83   H        29.8910   54.0317   32.8382  H     
84   H        16.3842   45.4697   31.7608  H     
85   H        17.2934   46.5323   30.7045  H     
86   H        16.7288   43.1929   31.8631  H     
87   H        18.4141   43.0551   32.3801  H     
88   H        17.7427   44.4705   29.7838  H     
89   H        19.1631   44.6863   30.8204  H     
90   H        36.0830   51.0910   40.9261  H     
91   H        35.4620   52.7289   40.6924  H     
92   H        33.1930   53.3806   41.9694  H     
93   H        32.4251   52.1345   42.9592  H     
94   H        34.1722   50.4974   42.3583  H     
95   H        34.9397   51.9644   42.9804  H     
@<TRIPOS>BOND
     1    1    2 1
     2    1    3 am
     3    1    8 2
     4    2    4 1
     5    2   15 1
     6    3    7 1
     7    4    5 am
     8    5   10 2
     9    5   12 1
    10    6    7 1
    11    6    9 2
    12    6   11 am
    13    7   25 1
    14   11   22 1
    15   12   13 1
    16   13   17 2
    17   13   19 1
    18   14   20 1
    19   14   21 2
    20   14   29 1
    21   15   23 1
    22   16   27 1
    23   17   21 1
    24   18   28 1
    25   19   20 2
    26   22   26 1
    27   24   26 1
    28   24   30 1
    29   24   31 1
    30   25   32 1
    31   27   33 1
    32   28   34 1
    33   29   35 1
    34   30   39 1
    35   31   38 1
    36   32   34 1
    37   33   36 1
    38   35   37 1
    39   36   37 1
    40   38   40 1
    41   39   40 1
    42    2   41 1
    43    3   42 1
    44    4   43 1
    45    7   44 1
    46   11   45 1
    47   12   46 1
    48   12   47 1
    49   15   48 1
    50   15   49 1
    51   16   50 1
    52   16   51 1
    53   16   52 1
    54   17   53 1
    55   18   54 1
    56   18   55 1
    57   18   56 1
    58   19   57 1
    59   20   58 1
    60   21   59 1
    61   22   60 1
    62   22   61 1
    63   23   62 1
    64   24   63 1
    65   25   64 1
    66   25   65 1
    67   26   66 1
    68   26   67 1
    69   27   68 1
    70   27   69 1
    71   28   70 1
    72   28   71 1
    73   29   72 1
    74   29   73 1
    75   30   74 1
    76   30   75 1
    77   31   76 1
    78   31   77 1
    79   32   78 1
    80   32   79 1
    81   33   80 1
    82   33   81 1
    83   34   82 1
    84   34   83 1
    85   35   84 1
    86   35   85 1
    87   36   86 1
    88   36   87 1
    89   37   88 1
    90   37   89 1
    91   38   90 1
    92   38   91 1
    93   39   92 1
    94   39   93 1
    95   40   94 1
    96   40   95 1
@<TRIPOS>PROPERTY_DATA
  Total_Score	| 19.1725
  Crash		| -1.4921
  Polar		| 13.1464
  FragIndex	| 1
  FragRMSD	| 0.124

