@<TRIPOS>MOLECULE
BindingDB_50057689
 101 102 0 0 0
SMALL
NO_CHARGES


@<TRIPOS>ATOM
1    C        26.5726   49.5383   34.6910  C     
2    C        25.1641   49.2714   34.9534  C     
3    N        27.1172   50.6710   35.1166  N     
4    N        24.5437   48.4408   33.9591  N     
5    C        24.2601   48.7732   32.7034  C     
6    C        28.8907   51.5589   36.4855  C     
7    C        28.5233   50.9728   35.1957  C     
8    O        27.2501   48.6426   34.1883  O     
9    O        28.0276   51.8810   37.2959  O     
10   O        24.5980   49.8560   32.2401  O     
11   N        30.1748   51.7001   36.7867  N     
12   C        23.5604   47.8283   31.8469  C     
13   C        22.1180   47.6838   32.2083  C     
14   C        19.3565   47.3552   32.8886  C     
15   C        25.0047   48.5986   36.3469  C     
16   N        19.8716   40.1714   29.0705  N     
17   C        21.7281   46.8584   33.2878  C     
18   N        27.0661   55.8666   32.8348  N     
19   C        21.1057   48.3552   31.4851  C     
20   C        19.7492   48.2005   31.8208  C     
21   C        20.3726   46.7051   33.6301  C     
22   C        30.7457   52.1442   38.0185  C     
23   O        25.4211   49.4822   37.3877  O     
24   C        32.9115   51.8600   39.4971  C     
25   C        28.9329   51.8337   33.9693  C     
26   C        32.0721   51.3733   38.2739  C     
27   C        28.5142   55.6495   32.9187  C     
28   C        19.9643   41.3078   29.9891  C     
29   C        17.9280   47.1665   33.2550  C     
30   C        32.1212   51.7819   40.8393  C     
31   C        34.2494   51.0565   39.6201  C     
32   C        28.2613   53.2431   33.8921  C     
33   C        19.5697   42.6362   29.2924  C     
34   C        28.8865   54.1452   32.8000  C     
35   C        17.4256   45.7029   33.0831  C     
36   C        18.0861   45.1731   30.5499  C     
37   C        20.2628   43.8820   29.9161  C     
38   C        19.4504   44.5969   31.0426  C     
39   C        16.9904   45.2801   31.6505  C     
40   C        35.1024   51.5239   40.8329  C     
41   C        32.9732   52.2341   42.0587  C     
42   C        34.3042   51.4446   42.1535  C     
43   H        24.6024   50.2205   34.9929  H     
44   H        26.5029   51.3367   35.4865  H     
45   H        24.2659   47.5535   34.2396  H     
46   H        29.1066   50.0460   35.1269  H     
47   H        30.8049   51.4625   36.0866  H     
48   H        23.6505   48.1513   30.8013  H     
49   H        24.0502   46.8524   31.9029  H     
50   H        23.9510   48.3555   36.5160  H     
51   H        25.5859   47.6777   36.4036  H     
52   H        18.8995   39.9826   28.8106  H     
53   H        20.2613   39.3641   29.5472  H     
54   H        20.4220   40.3587   28.2294  H     
55   H        22.4251   46.3329   33.8233  H     
56   H        26.7027   55.3755   32.0175  H     
57   H        26.9006   56.8696   32.7294  H     
58   H        26.5914   55.5226   33.6738  H     
59   H        21.3538   48.9801   30.7145  H     
60   H        19.0446   48.7014   31.2717  H     
61   H        20.1234   46.1053   34.4199  H     
62   H        30.9634   53.2128   37.9275  H     
63   H        30.0672   52.0011   38.8640  H     
64   H        26.3771   49.3003   37.5170  H     
65   H        33.1804   52.9082   39.3212  H     
66   H        30.0187   51.9702   33.9611  H     
67   H        28.6764   51.2887   33.0545  H     
68   H        31.8353   50.3107   38.3872  H     
69   H        32.6839   51.4759   37.3676  H     
70   H        28.9825   56.1900   32.0979  H     
71   H        28.8869   56.0638   33.8602  H     
72   H        19.3104   41.1171   30.8448  H     
73   H        20.9978   41.3703   30.3382  H     
74   H        17.8183   47.4500   34.3018  H     
75   H        17.2752   47.8348   32.6843  H     
76   H        31.2370   52.4227   40.7912  H     
77   H        31.7809   50.7563   41.0087  H     
78   H        34.0289   49.9899   39.7313  H     
79   H        34.8410   51.1837   38.7121  H     
80   H        27.1907   53.1275   33.6894  H     
81   H        28.3622   53.7301   34.8661  H     
82   H        19.8761   42.5815   28.2406  H     
83   H        18.4774   42.7522   29.3226  H     
84   H        28.5764   53.7858   31.8079  H     
85   H        29.9822   54.0780   32.8514  H     
86   H        18.1658   44.9854   33.4524  H     
87   H        16.5414   45.5833   33.7210  H     
88   H        18.2530   46.1565   30.0960  H     
89   H        17.6930   44.5080   29.7604  H     
90   H        21.2316   43.5866   30.3321  H     
91   H        20.4853   44.6068   29.1225  H     
92   H        20.0642   45.4303   31.4157  H     
93   H        19.2924   43.9067   31.8802  H     
94   H        16.5094   44.2968   31.7245  H     
95   H        16.2327   45.9851   31.2918  H     
96   H        35.9978   50.9003   40.9125  H     
97   H        35.4315   52.5568   40.6646  H     
98   H        33.1972   53.3022   41.9703  H     
99   H        32.4003   52.0894   42.9766  H     
100  H        34.0909   50.3945   42.3824  H     
101  H        34.9148   51.8466   42.9696  H     
@<TRIPOS>BOND
     1    1    2 1
     2    1    3 am
     3    1    8 2
     4    2    4 1
     5    2   15 1
     6    3    7 1
     7    4    5 am
     8    5   10 2
     9    5   12 1
    10    6    7 1
    11    6    9 2
    12    6   11 am
    13    7   25 1
    14   11   22 1
    15   12   13 1
    16   13   17 2
    17   13   19 1
    18   14   20 1
    19   14   21 2
    20   14   29 1
    21   15   23 1
    22   16   28 1
    23   17   21 1
    24   18   27 1
    25   19   20 2
    26   22   26 1
    27   24   26 1
    28   24   30 1
    29   24   31 1
    30   25   32 1
    31   27   34 1
    32   28   33 1
    33   29   35 1
    34   30   41 1
    35   31   40 1
    36   32   34 1
    37   33   37 1
    38   35   39 1
    39   36   38 1
    40   36   39 1
    41   37   38 1
    42   40   42 1
    43   41   42 1
    44    2   43 1
    45    3   44 1
    46    4   45 1
    47    7   46 1
    48   11   47 1
    49   12   48 1
    50   12   49 1
    51   15   50 1
    52   15   51 1
    53   16   52 1
    54   16   53 1
    55   16   54 1
    56   17   55 1
    57   18   56 1
    58   18   57 1
    59   18   58 1
    60   19   59 1
    61   20   60 1
    62   21   61 1
    63   22   62 1
    64   22   63 1
    65   23   64 1
    66   24   65 1
    67   25   66 1
    68   25   67 1
    69   26   68 1
    70   26   69 1
    71   27   70 1
    72   27   71 1
    73   28   72 1
    74   28   73 1
    75   29   74 1
    76   29   75 1
    77   30   76 1
    78   30   77 1
    79   31   78 1
    80   31   79 1
    81   32   80 1
    82   32   81 1
    83   33   82 1
    84   33   83 1
    85   34   84 1
    86   34   85 1
    87   35   86 1
    88   35   87 1
    89   36   88 1
    90   36   89 1
    91   37   90 1
    92   37   91 1
    93   38   92 1
    94   38   93 1
    95   39   94 1
    96   39   95 1
    97   40   96 1
    98   40   97 1
    99   41   98 1
   100   41   99 1
   101   42  100 1
   102   42  101 1
@<TRIPOS>PROPERTY_DATA
  Total_Score	| 19.2754
  Crash		| -2.2604
  Polar		| 12.3320
  FragIndex	| 1
  FragRMSD	| 0.142

