@<TRIPOS>MOLECULE
BindingDB_50330605
 47 49 0 0 0
SMALL
NO_CHARGES


@<TRIPOS>ATOM
1    C       -25.7622    6.2477   20.6759  C     
2    C       -25.8917    7.5771   20.2065  C     
3    N       -25.2766    7.8502   19.0267  N     
4    C       -24.5701    6.9637   18.2556  C     
5    C       -24.5699    5.6235   18.7160  C     
6    N       -25.1411    5.3362   19.9006  N     
7    N       -24.1238    4.5667   18.0115  N     
8    N       -23.9160    7.4201   17.1395  N     
9    C       -22.5507    7.0376   16.8247  C     
10   C       -22.2874    6.7440   15.3126  C     
11   C       -23.3793    7.3348   14.3732  C     
12   C       -23.8426    8.7076   14.9428  C     
13   C       -24.4900    8.4982   16.3471  C     
14   C       -22.9825    7.4107   12.9455  C     
15   O       -23.7200    8.1595   12.0895  O     
16   O       -22.0235    6.6176   12.3952  O     
17   C       -26.5802    8.6069   20.9469  C     
18   C       -27.4000    8.3461   22.0713  C     
19   C       -28.0123    9.3830   22.8038  C     
20   C       -27.8246   10.7255   22.4103  C     
21   C       -27.0545   11.0291   21.2712  C     
22   C       -26.4385    9.9843   20.5489  C     
23   O       -26.9277   12.3818   20.9993  O     
24   C       -26.0586   12.8149   19.9463  C     
25   O       -28.6960    9.1144   23.9572  O     
26   C       -29.9280    8.4023   23.7493  C     
27   H       -26.1225    5.9370   21.5786  H     
28   H       -24.2193    3.6691   18.3734  H     
29   H       -23.7795    4.6813   17.1087  H     
30   H       -21.9331    7.9001   17.0966  H     
31   H       -22.1501    6.2157   17.4196  H     
32   H       -21.3134    7.1719   15.0612  H     
33   H       -22.2216    5.6703   15.1515  H     
34   H       -24.2439    6.6623   14.3979  H     
35   H       -22.9802    9.3738   15.0273  H     
36   H       -24.5723    9.1815   14.2830  H     
37   H       -25.5498    8.2655   16.1765  H     
38   H       -24.4489    9.4346   16.9091  H     
39   H       -27.5636    7.3924   22.3847  H     
40   H       -28.2400   11.4727   22.9642  H     
41   H       -25.8544   10.2485   19.7433  H     
42   H       -25.0353   12.5305   20.1411  H     
43   H       -26.0857   13.9369   19.8741  H     
44   H       -26.3774   12.4323   18.9779  H     
45   H       -30.5859    8.9423   23.0654  H     
46   H       -30.4270    8.3158   24.7083  H     
47   H       -29.7405    7.3953   23.3661  H     
@<TRIPOS>BOND
     1    1    2 2
     2    1    6 1
     3    2    3 1
     4    2   17 1
     5    3    4 2
     6    4    5 1
     7    4    8 1
     8    5    6 2
     9    5    7 1
    10    8    9 1
    11    8   13 1
    12    9   10 1
    13   10   11 1
    14   11   12 1
    15   11   14 1
    16   12   13 1
    17   14   15 1
    18   14   16 2
    19   17   18 2
    20   17   22 1
    21   18   19 1
    22   19   20 2
    23   19   25 1
    24   20   21 1
    25   21   22 2
    26   21   23 1
    27   23   24 1
    28   25   26 1
    29    1   27 1
    30    7   28 1
    31    7   29 1
    32    9   30 1
    33    9   31 1
    34   10   32 1
    35   10   33 1
    36   11   34 1
    37   12   35 1
    38   12   36 1
    39   13   37 1
    40   13   38 1
    41   18   39 1
    42   20   40 1
    43   22   41 1
    44   24   42 1
    45   24   43 1
    46   24   44 1
    47   26   45 1
    48   26   46 1
    49   26   47 1
@<TRIPOS>PROPERTY_DATA
  Total_Score	| 8.9094
  Crash		| -1.0209
  Polar		| 5.1462
  FragIndex	| 1
  FragRMSD	| 0.303

