@<TRIPOS>MOLECULE
BindingDB_50330595
 54 56 0 0 0
SMALL
NO_CHARGES


@<TRIPOS>ATOM
1    C       -25.7756    6.2203   20.7481  C     
2    C       -25.9245    7.5576   20.3212  C     
3    N       -25.2663    7.8680   19.1696  N     
4    C       -24.5045    7.0314   18.4057  C     
5    C       -24.4369    5.6881   18.8491  C     
6    N       -25.0667    5.3481   19.9960  N     
7    N       -23.8985    4.6718   18.1533  N     
8    N       -23.8757    7.5424   17.3019  N     
9    C       -24.5600    8.4854   16.4301  C     
10   C       -24.5769    7.9184   14.9817  C     
11   C       -23.0961    7.6860   14.5065  C     
12   C       -22.3344    6.7551   15.5019  C     
13   C       -22.4968    7.2332   16.9654  C     
14   C       -22.9378    7.2218   13.1028  C     
15   O       -21.7168    6.9076   12.6267  O     
16   O       -23.9287    7.3239   12.1783  O     
17   C       -26.6728    8.5782   21.0071  C     
18   C       -26.6828    9.9124   20.5417  C     
19   C       -27.4059   10.9376   21.1945  C     
20   C       -28.1407   10.6310   22.3622  C     
21   C       -28.1489    9.3149   22.8611  C     
22   C       -27.4177    8.3135   22.1871  C     
23   O       -28.7469    9.0518   24.0706  O     
24   C       -29.9574    8.2811   24.0050  C     
25   O       -28.7458   11.6354   23.0810  O     
26   C       -30.1328   11.8501   22.6945  C     
27   O       -27.2926   12.2400   20.7849  O     
28   C       -27.9521   12.5344   19.5259  C     
29   C       -25.4964    6.6530   14.9179  C     
30   H       -26.1934    5.8552   21.6018  H     
31   H       -23.9625    3.7733   18.4981  H     
32   H       -23.5223    4.8307   17.2801  H     
33   H       -25.5939    8.6825   16.7351  H     
34   H       -24.0409    9.4437   16.4544  H     
35   H       -25.0283    8.6812   14.3367  H     
36   H       -22.5894    8.6555   14.5400  H     
37   H       -22.7065    5.7348   15.4206  H     
38   H       -21.2679    6.7378   15.2560  H     
39   H       -21.9299    8.1521   17.0707  H     
40   H       -22.0242    6.5152   17.6437  H     
41   H       -26.1303   10.1836   19.7276  H     
42   H       -27.4292    7.3778   22.5985  H     
43   H       -30.7179    8.7625   23.3873  H     
44   H       -30.3438    8.1988   25.0209  H     
45   H       -29.7847    7.2702   23.6287  H     
46   H       -30.2004   12.2180   21.6605  H     
47   H       -30.5498   12.6139   23.3737  H     
48   H       -30.7346   10.9309   22.8033  H     
49   H       -27.5098   11.9535   18.7003  H     
50   H       -27.8001   13.6041   19.3105  H     
51   H       -29.0277   12.3382   19.5995  H     
52   H       -25.1347    5.8615   15.5772  H     
53   H       -25.5489    6.2648   13.8992  H     
54   H       -26.5110    6.9119   15.2387  H     
@<TRIPOS>BOND
     1    1    2 2
     2    1    6 1
     3    2    3 1
     4    2   17 1
     5    3    4 2
     6    4    5 1
     7    4    8 1
     8    5    6 2
     9    5    7 1
    10    8    9 1
    11    8   13 1
    12    9   10 1
    13   10   11 1
    14   10   29 1
    15   11   12 1
    16   11   14 1
    17   12   13 1
    18   14   15 1
    19   14   16 2
    20   17   18 2
    21   17   22 1
    22   18   19 1
    23   19   20 2
    24   19   27 1
    25   20   21 1
    26   20   25 1
    27   21   22 2
    28   21   23 1
    29   23   24 1
    30   25   26 1
    31   27   28 1
    32    1   30 1
    33    7   31 1
    34    7   32 1
    35    9   33 1
    36    9   34 1
    37   10   35 1
    38   11   36 1
    39   12   37 1
    40   12   38 1
    41   13   39 1
    42   13   40 1
    43   18   41 1
    44   22   42 1
    45   24   43 1
    46   24   44 1
    47   24   45 1
    48   26   46 1
    49   26   47 1
    50   26   48 1
    51   28   49 1
    52   28   50 1
    53   28   51 1
    54   29   52 1
    55   29   53 1
    56   29   54 1
@<TRIPOS>PROPERTY_DATA
  Total_Score	| 8.3896
  Crash		| -2.0917
  Polar		| 5.2898
  FragIndex	| 1
  FragRMSD	| 0.684

