@<TRIPOS>MOLECULE
BindingDB_50330578
 51 53 0 0 0
SMALL
NO_CHARGES


@<TRIPOS>ATOM
1    C       -26.2542   12.8951   20.9655  C     
2    O       -27.4613   12.1627   20.6371  O     
3    C       -27.4630   10.8911   21.1604  C     
4    C       -26.6899    9.8901   20.5186  C     
5    C       -26.6698    8.5530   20.9938  C     
6    C       -25.9568    7.5290   20.2854  C     
7    C       -25.8007    6.1946   20.7104  C     
8    N       -25.1350    5.3212   19.9276  N     
9    C       -24.5595    5.6506   18.7471  C     
10   N       -24.0458    4.6326   18.0388  N     
11   C       -24.6304    6.9931   18.3120  C     
12   N       -23.9893    7.5154   17.2235  N     
13   C       -24.5890    8.5569   16.4018  C     
14   C       -24.4685    8.1924   14.8927  C     
15   C       -23.0012    7.8392   14.4903  C     
16   C       -22.8428    7.3739   13.0914  C     
17   O       -23.8841    7.2698   12.2370  O     
18   O       -21.6473    6.9062   12.6657  O     
19   C       -22.4166    6.7772   15.4756  C     
20   C       -22.6009    7.2212   16.9430  C     
21   N       -25.3508    7.8299   19.1068  N     
22   C       -27.4055    8.2956   22.1681  C     
23   C       -28.2076    9.2604   22.8125  C     
24   O       -28.7449    8.7998   23.9896  O     
25   C       -30.0034    8.1087   24.0475  C     
26   C       -28.3320   10.5469   22.2151  C     
27   O       -29.2012   11.4749   22.7433  O     
28   C       -30.5085   11.4954   22.1256  C     
29   H       -26.1983   13.1251   22.0372  H     
30   H       -26.2746   13.8408   20.4006  H     
31   H       -25.3389   12.3612   20.6524  H     
32   H       -26.1335   10.1584   19.7053  H     
33   H       -26.1783    5.8355   21.5819  H     
34   H       -23.6987    4.7634   17.1463  H     
35   H       -24.0925    3.7326   18.3916  H     
36   H       -25.6546    8.7042   16.6125  H     
37   H       -24.0920    9.5178   16.5775  H     
38   H       -25.1144    7.3296   14.6949  H     
39   H       -24.8308    9.0285   14.2820  H     
40   H       -22.3970    8.7539   14.5857  H     
41   H       -22.9226    5.8223   15.3289  H     
42   H       -21.3454    6.6334   15.2902  H     
43   H       -22.0279    8.1335   17.1035  H     
44   H       -22.1601    6.4790   17.6022  H     
45   H       -27.3656    7.3792   22.6023  H     
46   H       -30.7685    8.6931   23.5113  H     
47   H       -30.2829    7.9745   25.0885  H     
48   H       -29.8805    7.1153   23.5856  H     
49   H       -30.4770   11.7589   21.0658  H     
50   H       -31.0975   12.2543   22.6471  H     
51   H       -31.0148   10.5266   22.2448  H     
@<TRIPOS>BOND
     1    1    2 1
     2    2    3 1
     3    3    4 1
     4    3   26 2
     5    4    5 2
     6    5    6 1
     7    5   22 1
     8    6    7 1
     9    6   21 2
    10    7    8 2
    11    8    9 1
    12    9   10 1
    13    9   11 2
    14   11   12 1
    15   11   21 1
    16   12   13 1
    17   12   20 1
    18   13   14 1
    19   14   15 1
    20   15   16 1
    21   15   19 1
    22   16   17 2
    23   16   18 1
    24   19   20 1
    25   22   23 2
    26   23   24 1
    27   23   26 1
    28   24   25 1
    29   26   27 1
    30   27   28 1
    31    1   29 1
    32    1   30 1
    33    1   31 1
    34    4   32 1
    35    7   33 1
    36   10   34 1
    37   10   35 1
    38   13   36 1
    39   13   37 1
    40   14   38 1
    41   14   39 1
    42   15   40 1
    43   19   41 1
    44   19   42 1
    45   20   43 1
    46   20   44 1
    47   22   45 1
    48   25   46 1
    49   25   47 1
    50   25   48 1
    51   28   49 1
    52   28   50 1
    53   28   51 1
@<TRIPOS>PROPERTY_DATA
  Total_Score	| 9.0135
  Crash		| -1.6503
  Polar		| 5.6583
  FragIndex	| 1
  FragRMSD	| 0.691

