@<TRIPOS>MOLECULE
BindingDB_50330587
 54 56 0 0 0
SMALL
NO_CHARGES


@<TRIPOS>ATOM
1    C       -25.6678    6.1983   20.7419  C     
2    C       -25.9454    7.5151   20.3009  C     
3    N       -25.5893    7.7814   19.0140  N     
4    C       -25.0403    6.9030   18.1310  C     
5    C       -24.7859    5.5989   18.6088  C     
6    N       -25.0940    5.3065   19.8967  N     
7    N       -24.1497    4.6603   17.8912  N     
8    N       -24.8051    7.3177   16.8559  N     
9    C       -23.9700    8.4760   16.5979  C     
10   C       -22.9943    8.2242   15.3955  C     
11   C       -23.4573    7.0928   14.4167  C     
12   C       -25.0051    7.0167   14.3544  C     
13   C       -25.5683    6.7189   15.7707  C     
14   C       -22.8631    7.2050   13.0709  C     
15   O       -23.4198    8.0088   12.1377  O     
16   O       -21.5569    6.8952   12.9195  O     
17   C       -26.6060    8.5243   21.0767  C     
18   C       -27.3100    8.2294   22.2745  C     
19   C       -27.9950    9.2248   23.0014  C     
20   C       -27.9630   10.5631   22.5568  C     
21   C       -27.3047   10.8827   21.3494  C     
22   C       -26.6170    9.8764   20.6425  C     
23   O       -27.2724   12.1828   20.9206  O     
24   C       -28.1141   12.4355   19.7834  C     
25   O       -28.5910   11.5375   23.2815  O     
26   C       -27.7027   12.2017   24.1967  C     
27   O       -28.6272    8.9078   24.1793  O     
28   C       -29.8693    8.2029   24.0025  C     
29   C       -24.8201    9.7687   16.4345  C     
30   H       -25.8501    5.8905   21.6951  H     
31   H       -23.9655    3.7957   18.2835  H     
32   H       -23.8540    4.8488   16.9860  H     
33   H       -23.3409    8.6556   17.4749  H     
34   H       -22.8384    9.1557   14.8383  H     
35   H       -22.0154    7.9304   15.7845  H     
36   H       -23.1119    6.1437   14.8306  H     
37   H       -25.4052    7.9685   13.9855  H     
38   H       -25.3317    6.2336   13.6642  H     
39   H       -25.5999    5.6321   15.8736  H     
40   H       -26.6027    7.0708   15.8297  H     
41   H       -27.3577    7.2760   22.6345  H     
42   H       -26.1101   10.1557   19.7976  H     
43   H       -27.7578   11.9073   18.8947  H     
44   H       -28.0785   13.5049   19.5757  H     
45   H       -29.1572   12.1628   19.9737  H     
46   H       -27.2605   11.4974   24.9110  H     
47   H       -28.2766   12.9381   24.7613  H     
48   H       -26.9024   12.7286   23.6639  H     
49   H       -30.5873    8.7992   23.4346  H     
50   H       -30.2928    8.0058   24.9866  H     
51   H       -29.7214    7.2422   23.5014  H     
52   H       -25.4692    9.7163   15.5588  H     
53   H       -24.1748   10.6443   16.3273  H     
54   H       -25.4467    9.9221   17.3132  H     
@<TRIPOS>BOND
     1    1    2 2
     2    1    6 1
     3    2    3 1
     4    2   17 1
     5    3    4 2
     6    4    5 1
     7    4    8 1
     8    5    6 2
     9    5    7 1
    10    8    9 1
    11    8   13 1
    12    9   10 1
    13    9   29 1
    14   10   11 1
    15   11   12 1
    16   11   14 1
    17   12   13 1
    18   14   15 1
    19   14   16 2
    20   17   18 2
    21   17   22 1
    22   18   19 1
    23   19   20 2
    24   19   27 1
    25   20   21 1
    26   20   25 1
    27   21   22 2
    28   21   23 1
    29   23   24 1
    30   25   26 1
    31   27   28 1
    32    1   30 1
    33    7   31 1
    34    7   32 1
    35    9   33 1
    36   10   34 1
    37   10   35 1
    38   11   36 1
    39   12   37 1
    40   12   38 1
    41   13   39 1
    42   13   40 1
    43   18   41 1
    44   22   42 1
    45   24   43 1
    46   24   44 1
    47   24   45 1
    48   26   46 1
    49   26   47 1
    50   26   48 1
    51   28   49 1
    52   28   50 1
    53   28   51 1
    54   29   52 1
    55   29   53 1
    56   29   54 1
@<TRIPOS>PROPERTY_DATA
  Total_Score	| 8.7193
  Crash		| -1.8006
  Polar		| 5.4051
  FragIndex	| 1
  FragRMSD	| 0.878

