@<TRIPOS>MOLECULE
BindingDB_50330607
 47 49 0 0 0
SMALL
NO_CHARGES


@<TRIPOS>ATOM
1    C       -25.7325    6.2359   20.5807  C     
2    C       -25.9163    7.5549   20.1047  C     
3    N       -25.3540    7.8289   18.8980  N     
4    C       -24.6550    6.9521   18.1084  C     
5    C       -24.5885    5.6140   18.5851  C     
6    N       -25.1088    5.3254   19.7978  N     
7    N       -24.1273    4.5751   17.8731  N     
8    N       -24.0128    7.4301   16.9958  N     
9    C       -22.5828    7.2575   16.8137  C     
10   C       -22.2615    6.8798   15.3498  C     
11   C       -22.6564    8.0365   14.3737  C     
12   C       -23.8563    8.9000   14.9011  C     
13   C       -24.7218    8.2422   16.0197  C     
14   C       -22.7870    7.5135   12.9876  C     
15   O       -23.8883    7.7028   12.2265  O     
16   O       -21.8056    6.7319   12.4718  O     
17   C       -26.5681    8.5852   20.8674  C     
18   C       -26.3706    9.9506   20.5512  C     
19   C       -26.9452   10.9781   21.3217  C     
20   C       -27.7403   10.6672   22.4382  C     
21   C       -28.0043    9.3178   22.7497  C     
22   C       -27.4128    8.2958   21.9735  C     
23   O       -28.6788    9.0245   23.9191  O     
24   C       -29.8849    8.2494   23.7065  C     
25   O       -28.2884   11.6849   23.1744  O     
26   C       -27.3600   12.3185   24.0796  C     
27   H       -26.0586    5.9219   21.4992  H     
28   H       -24.1542    3.6899   18.2562  H     
29   H       -23.8333    4.6931   16.9590  H     
30   H       -22.0962    8.2031   17.0393  H     
31   H       -22.1268    6.5301   17.4777  H     
32   H       -21.1907    6.6560   15.2578  H     
33   H       -22.8105    5.9663   15.1092  H     
34   H       -21.7952    8.7110   14.3230  H     
35   H       -23.4299    9.8074   15.3285  H     
36   H       -24.5053    9.2323   14.0937  H     
37   H       -25.4608    7.5973   15.5359  H     
38   H       -25.2709    9.0465   16.5227  H     
39   H       -25.7761   10.2301   19.7678  H     
40   H       -26.7839   11.9562   21.0846  H     
41   H       -27.6005    7.3298   22.2437  H     
42   H       -30.5770    8.7440   22.9905  H     
43   H       -30.3973    8.1744   24.6782  H     
44   H       -29.6719    7.2159   23.3559  H     
45   H       -27.0238   11.6022   24.8458  H     
46   H       -27.8769   13.1591   24.5686  H     
47   H       -26.4832   12.7267   23.5489  H     
@<TRIPOS>BOND
     1    1    2 2
     2    1    6 1
     3    2    3 1
     4    2   17 1
     5    3    4 2
     6    4    5 1
     7    4    8 1
     8    5    6 2
     9    5    7 1
    10    8    9 1
    11    8   13 1
    12    9   10 1
    13   10   11 1
    14   11   12 1
    15   11   14 1
    16   12   13 1
    17   14   15 1
    18   14   16 2
    19   17   18 2
    20   17   22 1
    21   18   19 1
    22   19   20 2
    23   20   21 1
    24   20   25 1
    25   21   22 2
    26   21   23 1
    27   23   24 1
    28   25   26 1
    29    1   27 1
    30    7   28 1
    31    7   29 1
    32    9   30 1
    33    9   31 1
    34   10   32 1
    35   10   33 1
    36   11   34 1
    37   12   35 1
    38   12   36 1
    39   13   37 1
    40   13   38 1
    41   18   39 1
    42   19   40 1
    43   22   41 1
    44   24   42 1
    45   24   43 1
    46   24   44 1
    47   26   45 1
    48   26   46 1
    49   26   47 1
@<TRIPOS>PROPERTY_DATA
  Total_Score	| 9.0529
  Crash		| -1.2509
  Polar		| 5.5760
  FragIndex	| 1
  FragRMSD	| 0.372

