@<TRIPOS>MOLECULE
BindingDB_50330598
 53 55 0 0 0
SMALL
NO_CHARGES


@<TRIPOS>ATOM
1    C       -25.7245    6.1395   20.5275  C     
2    C       -25.9287    7.4628   20.0844  C     
3    N       -25.3351    7.7615   18.8938  N     
4    C       -24.5910    6.9476   18.0987  C     
5    C       -24.4577    5.6211   18.5638  C     
6    N       -25.0159    5.2823   19.7528  N     
7    N       -23.8782    4.6322   17.8620  N     
8    N       -23.9989    7.4893   16.9888  N     
9    C       -24.6122    8.6067   16.2867  C     
10   C       -24.4718    8.4587   14.7477  C     
11   C       -22.9874    8.2310   14.3222  C     
12   C       -22.4085    7.0223   15.1293  C     
13   C       -22.6193    7.2094   16.6564  C     
14   C       -22.8483    8.1229   12.8733  C     
15   N       -22.8819    9.2096   12.1218  N     
16   O       -22.6324    7.0556   12.3057  O     
17   C       -26.6072    8.5069   20.8065  C     
18   C       -26.5722    9.8459   20.3424  C     
19   C       -27.1380   10.9138   21.0724  C     
20   C       -27.8031   10.6375   22.2848  C     
21   C       -27.9398    9.3085   22.7310  C     
22   C       -27.3142    8.2664   22.0139  C     
23   O       -28.6096    9.0437   23.9001  O     
24   C       -29.8023    8.2633   23.7137  C     
25   O       -28.3036   11.6669   23.0430  O     
26   C       -27.2967   12.2951   23.8500  C     
27   O       -27.0845   12.2156   20.6403  O     
28   C       -25.8788   12.6233   19.9437  C     
29   H       -26.0779    5.7943   21.4160  H     
30   H       -23.8473    3.7388   18.2304  H     
31   H       -23.5391    4.7980   16.9686  H     
32   H       -25.6804    8.6870   16.5078  H     
33   H       -24.1299    9.5368   16.6043  H     
34   H       -25.0853    7.6180   14.4160  H     
35   H       -24.8656    9.3682   14.2741  H     
36   H       -22.4080    9.1126   14.6100  H     
37   H       -22.9026    6.1017   14.8291  H     
38   H       -21.3443    6.9165   14.9323  H     
39   H       -22.0191    8.0485   16.9923  H     
40   H       -22.2016    6.3442   17.1741  H     
41   H       -22.7162    9.1719   11.1618  H     
42   H       -23.0336   10.0707   12.5341  H     
43   H       -26.1117   10.0719   19.4607  H     
44   H       -27.3791    7.3216   22.3984  H     
45   H       -30.5149    8.7418   23.0340  H     
46   H       -30.2806    8.1544   24.6880  H     
47   H       -29.5564    7.2660   23.3393  H     
48   H       -26.9490   11.6116   24.6320  H     
49   H       -27.7353   13.1783   24.3239  H     
50   H       -26.4371   12.6228   23.2593  H     
51   H       -24.9749   12.3314   20.4953  H     
52   H       -25.8898   13.7132   19.8478  H     
53   H       -25.8609   12.1668   18.9455  H     
@<TRIPOS>BOND
     1    1    2 2
     2    1    6 1
     3    2    3 1
     4    2   17 1
     5    3    4 2
     6    4    5 1
     7    4    8 1
     8    5    6 2
     9    5    7 1
    10    8    9 1
    11    8   13 1
    12    9   10 1
    13   10   11 1
    14   11   12 1
    15   11   14 1
    16   12   13 1
    17   14   15 am
    18   14   16 2
    19   17   18 2
    20   17   22 1
    21   18   19 1
    22   19   20 2
    23   19   27 1
    24   20   21 1
    25   20   25 1
    26   21   22 2
    27   21   23 1
    28   23   24 1
    29   25   26 1
    30   27   28 1
    31    1   29 1
    32    7   30 1
    33    7   31 1
    34    9   32 1
    35    9   33 1
    36   10   34 1
    37   10   35 1
    38   11   36 1
    39   12   37 1
    40   12   38 1
    41   13   39 1
    42   13   40 1
    43   15   41 1
    44   15   42 1
    45   18   43 1
    46   22   44 1
    47   24   45 1
    48   24   46 1
    49   24   47 1
    50   26   48 1
    51   26   49 1
    52   26   50 1
    53   28   51 1
    54   28   52 1
    55   28   53 1
@<TRIPOS>PROPERTY_DATA
  Total_Score	| 7.0086
  Crash		| -1.6221
  Polar		| 3.5769
  FragIndex	| 1
  FragRMSD	| 0.300

