@<TRIPOS>MOLECULE
BindingDB_50330592
 54 56 0 0 0
SMALL
NO_CHARGES


@<TRIPOS>ATOM
1    C       -25.7965    6.2318   20.7034  C     
2    C       -25.9183    7.5580   20.2286  C     
3    N       -25.2533    7.8162   19.0633  N     
4    C       -24.5042    6.9459   18.3254  C     
5    C       -24.4759    5.6136   18.8144  C     
6    N       -25.1026    5.3225   19.9823  N     
7    N       -23.9675    4.5654   18.1449  N     
8    N       -23.8488    7.4211   17.2184  N     
9    C       -24.4285    8.5065   16.4336  C     
10   C       -23.7566    8.7434   15.0382  C     
11   C       -23.3642    7.3439   14.4379  C     
12   C       -22.3321    6.6405   15.3852  C     
13   C       -22.4998    7.0104   16.8839  C     
14   C       -22.9265    7.3704   13.0170  C     
15   O       -21.7118    6.9494   12.6048  O     
16   O       -23.8608    7.5555   12.0542  O     
17   C       -26.6055    8.6281   20.9120  C     
18   C       -27.4428    8.4044   22.0366  C     
19   C       -28.0775    9.4674   22.7093  C     
20   C       -27.8642   10.7942   22.2799  C     
21   C       -27.0268   11.0652   21.1743  C     
22   C       -26.4270    9.9755   20.4958  C     
23   O       -26.8699   12.4034   20.8534  O     
24   C       -25.9831   12.8625   19.8221  C     
25   O       -28.4119   11.8283   23.0048  O     
26   C       -29.6556   12.3153   22.4708  C     
27   O       -28.8272    9.2419   23.8355  O     
28   C       -30.0733    8.5623   23.6041  C     
29   C       -24.6578    9.6423   14.1476  C     
30   H       -26.2173    5.9331   21.5832  H     
31   H       -24.0399    3.6822   18.5316  H     
32   H       -23.5995    4.6721   17.2546  H     
33   H       -25.4790    8.2544   16.2554  H     
34   H       -24.4037    9.4323   17.0127  H     
35   H       -22.8317    9.3051   15.1971  H     
36   H       -24.2706    6.7262   14.4476  H     
37   H       -22.4301    5.5591   15.2734  H     
38   H       -21.3034    6.9021   15.1091  H     
39   H       -21.8618    7.8705   17.0933  H     
40   H       -22.0993    6.2062   17.5062  H     
41   H       -27.6077    7.4641   22.3860  H     
42   H       -25.8254   10.1825   19.6939  H     
43   H       -24.9603   12.5468   20.0368  H     
44   H       -26.0053   13.9541   19.7841  H     
45   H       -26.2980   12.4754   18.8472  H     
46   H       -29.5265   12.7153   21.4620  H     
47   H       -30.0137   13.1213   23.1095  H     
48   H       -30.4182   11.5337   22.4528  H     
49   H       -30.6673    9.0461   22.8251  H     
50   H       -30.6453    8.5872   24.5298  H     
51   H       -29.9057    7.5180   23.3328  H     
52   H       -25.5344    9.0879   13.8074  H     
53   H       -24.1029    9.9953   13.2731  H     
54   H       -24.9952   10.5225   14.7054  H     
@<TRIPOS>BOND
     1    1    2 2
     2    1    6 1
     3    2    3 1
     4    2   17 1
     5    3    4 2
     6    4    5 1
     7    4    8 1
     8    5    6 2
     9    5    7 1
    10    8    9 1
    11    8   13 1
    12    9   10 1
    13   10   11 1
    14   10   29 1
    15   11   12 1
    16   11   14 1
    17   12   13 1
    18   14   15 1
    19   14   16 2
    20   17   18 2
    21   17   22 1
    22   18   19 1
    23   19   20 2
    24   19   27 1
    25   20   21 1
    26   20   25 1
    27   21   22 2
    28   21   23 1
    29   23   24 1
    30   25   26 1
    31   27   28 1
    32    1   30 1
    33    7   31 1
    34    7   32 1
    35    9   33 1
    36    9   34 1
    37   10   35 1
    38   11   36 1
    39   12   37 1
    40   12   38 1
    41   13   39 1
    42   13   40 1
    43   18   41 1
    44   22   42 1
    45   24   43 1
    46   24   44 1
    47   24   45 1
    48   26   46 1
    49   26   47 1
    50   26   48 1
    51   28   49 1
    52   28   50 1
    53   28   51 1
    54   29   52 1
    55   29   53 1
    56   29   54 1
@<TRIPOS>PROPERTY_DATA
  Total_Score	| 8.4383
  Crash		| -1.4894
  Polar		| 5.1524
  FragIndex	| 1
  FragRMSD	| 0.722

