@<TRIPOS>MOLECULE
BindingDB_50330594
 54 56 0 0 0
SMALL
NO_CHARGES


@<TRIPOS>ATOM
1    C       -25.7944    6.2562   20.8110  C     
2    C       -26.0662    7.5925   20.4152  C     
3    N       -25.6841    7.9237   19.1446  N     
4    C       -25.1520    7.0481   18.2472  C     
5    C       -24.9959    5.6979   18.6443  C     
6    N       -25.2842    5.3687   19.9240  N     
7    N       -24.5261    4.7256   17.8399  N     
8    N       -24.8245    7.4990   17.0109  N     
9    C       -23.6892    8.3705   16.8204  C     
10   C       -22.7661    7.8312   15.6723  C     
11   C       -23.6208    7.5801   14.3714  C     
12   C       -24.9040    6.7452   14.6817  C     
13   C       -25.6951    7.2920   15.8886  C     
14   C       -22.9023    6.9694   13.2168  C     
15   O       -23.5235    6.9603   12.0175  O     
16   O       -21.5583    6.8455   13.1693  O     
17   C       -26.7232    8.5695   21.2426  C     
18   C       -27.3891    8.2225   22.4488  C     
19   C       -28.0518    9.1798   23.2398  C     
20   C       -28.0486   10.5385   22.8540  C     
21   C       -27.4524   10.9079   21.6267  C     
22   C       -26.7811    9.9350   20.8516  C     
23   O       -27.4779   12.2235   21.2348  O     
24   C       -28.3343   12.4887   20.1089  C     
25   O       -28.6628   11.4870   23.6335  O     
26   C       -27.7737   12.1653   24.5425  C     
27   O       -28.6243    8.7882   24.4242  O     
28   C       -29.9194    8.1802   24.2782  C     
29   C       -21.9255    6.6153   16.1788  C     
30   H       -25.9759    5.9087   21.7448  H     
31   H       -24.4174    3.8225   18.2020  H     
32   H       -24.3213    4.9283   16.9137  H     
33   H       -24.0330    9.3753   16.5652  H     
34   H       -23.1017    8.4687   17.7379  H     
35   H       -22.0493    8.6217   15.4377  H     
36   H       -23.9544    8.5630   14.0309  H     
37   H       -25.5613    6.7392   13.8119  H     
38   H       -24.6283    5.7135   14.9011  H     
39   H       -26.5124    6.6098   16.1223  H     
40   H       -26.1385    8.2495   15.6240  H     
41   H       -27.4175    7.2570   22.7772  H     
42   H       -26.3304   10.2470   19.9850  H     
43   H       -27.9703   11.9945   19.2029  H     
44   H       -28.3288   13.5644   19.9302  H     
45   H       -29.3631   12.1767   20.3110  H     
46   H       -27.3367   11.4738   25.2675  H     
47   H       -28.3538   12.9048   25.0937  H     
48   H       -26.9773   12.6868   24.0064  H     
49   H       -30.6441    8.8792   23.8559  H     
50   H       -30.2624    7.8960   25.2739  H     
51   H       -29.8786    7.2778   23.6614  H     
52   H       -21.5325    6.8082   17.1853  H     
53   H       -21.0584    6.4501   15.5368  H     
54   H       -22.5275    5.7100   16.2031  H     
@<TRIPOS>BOND
     1    1    2 2
     2    1    6 1
     3    2    3 1
     4    2   17 1
     5    3    4 2
     6    4    5 1
     7    4    8 1
     8    5    6 2
     9    5    7 1
    10    8    9 1
    11    8   13 1
    12    9   10 1
    13   10   11 1
    14   10   29 1
    15   11   12 1
    16   11   14 1
    17   12   13 1
    18   14   15 1
    19   14   16 2
    20   17   18 2
    21   17   22 1
    22   18   19 1
    23   19   20 2
    24   19   27 1
    25   20   21 1
    26   20   25 1
    27   21   22 2
    28   21   23 1
    29   23   24 1
    30   25   26 1
    31   27   28 1
    32    1   30 1
    33    7   31 1
    34    7   32 1
    35    9   33 1
    36    9   34 1
    37   10   35 1
    38   11   36 1
    39   12   37 1
    40   12   38 1
    41   13   39 1
    42   13   40 1
    43   18   41 1
    44   22   42 1
    45   24   43 1
    46   24   44 1
    47   24   45 1
    48   26   46 1
    49   26   47 1
    50   26   48 1
    51   28   49 1
    52   28   50 1
    53   28   51 1
    54   29   52 1
    55   29   53 1
    56   29   54 1
@<TRIPOS>PROPERTY_DATA
  Total_Score	| 8.2349
  Crash		| -2.9836
  Polar		| 5.4686
  FragIndex	| 1
  FragRMSD	| 0.908

