@<TRIPOS>MOLECULE
BindingDB_50330591
 57 59 0 0 0
SMALL
NO_CHARGES


@<TRIPOS>ATOM
1    C       -24.3313   11.2093   14.0879  C     
2    C       -25.0115    9.8536   14.3795  C     
3    C       -24.1210    8.8620   15.1912  C     
4    C       -24.8900    7.5566   15.5557  C     
5    N       -24.1126    6.7596   16.4888  N     
6    C       -24.5349    6.5687   17.7813  C     
7    N       -25.2275    7.5593   18.4191  N     
8    C       -25.6699    7.5538   19.7110  C     
9    C       -26.3494    8.7032   20.2504  C     
10   C       -27.0482    8.6753   21.4901  C     
11   C       -27.7312    9.8039   21.9917  C     
12   O       -28.3512    9.7715   23.2180  O     
13   C       -29.4651    8.8654   23.3202  C     
14   C       -27.7177   11.0089   21.2559  C     
15   O       -28.3402   12.1216   21.7548  O     
16   C       -29.6550   12.3521   21.2044  C     
17   C       -26.9941   11.0779   20.0462  C     
18   O       -26.9965   12.2178   19.2881  O     
19   C       -26.1092   13.2404   19.7714  C     
20   C       -26.3391    9.9349   19.5506  C     
21   C       -25.3787    6.3764   20.4380  C     
22   N       -24.7218    5.3583   19.8351  N     
23   C       -24.2973    5.4036   18.5490  C     
24   N       -23.7556    4.2793   18.0556  N     
25   C       -22.7992    6.3432   16.0227  C     
26   C       -21.9645    7.5720   15.5807  C     
27   C       -22.7210    8.4895   14.5645  C     
28   C       -22.7682    7.9044   13.1865  C     
29   O       -21.9215    6.9260   12.7716  O     
30   O       -23.5007    8.5011   12.2195  O     
31   H       -24.0329   11.6876   15.0276  H     
32   H       -25.0315   11.8713   13.5727  H     
33   H       -23.4526   11.0647   13.4563  H     
34   H       -25.9135   10.0731   14.9577  H     
35   H       -25.3322    9.3890   13.4430  H     
36   H       -23.9259    9.3704   16.1459  H     
37   H       -25.8797    7.8079   15.9492  H     
38   H       -25.0658    6.9674   14.6495  H     
39   H       -27.0801    7.8227   22.0467  H     
40   H       -30.2059    9.0387   22.5349  H     
41   H       -29.9477    9.0267   24.2853  H     
42   H       -29.1304    7.8262   23.2803  H     
43   H       -29.6303   12.4521   20.1125  H     
44   H       -30.0394   13.2870   21.6201  H     
45   H       -30.3457   11.5474   21.4778  H     
46   H       -26.4470   13.6271   20.7361  H     
47   H       -26.1165   14.0630   19.0541  H     
48   H       -25.0807   12.8782   19.8621  H     
49   H       -25.8477   10.0237   18.6579  H     
50   H       -25.6337    6.2537   21.4161  H     
51   H       -23.6456    3.5026   18.6205  H     
52   H       -23.5143    4.2201   17.1163  H     
53   H       -22.1979    5.8475   16.7853  H     
54   H       -22.9070    5.6544   15.1839  H     
55   H       -21.7406    8.1513   16.4822  H     
56   H       -21.0080    7.2351   15.1662  H     
57   H       -22.1344    9.4148   14.4827  H     
@<TRIPOS>BOND
     1    1    2 1
     2    3    2 1
     3    3    4 1
     4    3   27 1
     5    4    5 1
     6    5    6 1
     7    5   25 1
     8    6    7 2
     9    6   23 1
    10    7    8 1
    11    8    9 1
    12    8   21 2
    13    9   10 1
    14    9   20 2
    15   10   11 2
    16   11   12 1
    17   11   14 1
    18   12   13 1
    19   14   15 1
    20   14   17 2
    21   15   16 1
    22   17   18 1
    23   17   20 1
    24   18   19 1
    25   21   22 1
    26   22   23 2
    27   23   24 1
    28   25   26 1
    29   26   27 1
    30   27   28 1
    31   28   29 2
    32   28   30 1
    33    1   31 1
    34    1   32 1
    35    1   33 1
    36    2   34 1
    37    2   35 1
    38    3   36 1
    39    4   37 1
    40    4   38 1
    41   10   39 1
    42   13   40 1
    43   13   41 1
    44   13   42 1
    45   16   43 1
    46   16   44 1
    47   16   45 1
    48   19   46 1
    49   19   47 1
    50   19   48 1
    51   20   49 1
    52   21   50 1
    53   24   51 1
    54   24   52 1
    55   25   53 1
    56   25   54 1
    57   26   55 1
    58   26   56 1
    59   27   57 1
@<TRIPOS>PROPERTY_DATA
  Total_Score	| 7.2210
  Crash		| -2.0817
  Polar		| 4.8043
  FragIndex	| 1
  FragRMSD	| 0.822

