@<TRIPOS>MOLECULE
BindingDB_50330603
 43 45 0 0 0
SMALL
NO_CHARGES


@<TRIPOS>ATOM
1    C       -25.7946    6.1770   20.7332  C     
2    C       -25.9169    7.5364   20.3541  C     
3    N       -25.3360    7.8553   19.1627  N     
4    C       -24.6488    7.0085   18.3392  C     
5    C       -24.5879    5.6522   18.7483  C     
6    N       -25.1470    5.3011   19.9274  N     
7    N       -24.0816    4.6541   18.0074  N     
8    N       -24.0164    7.5119   17.2384  N     
9    C       -24.6252    8.5426   16.4190  C     
10   C       -24.5123    8.1562   14.9144  C     
11   C       -23.0319    7.8629   14.5009  C     
12   C       -22.4095    6.8070   15.4663  C     
13   C       -22.6322    7.1916   16.9471  C     
14   C       -22.8463    7.4357   13.0946  C     
15   O       -23.8511    7.4440   12.1939  O     
16   O       -21.6655    6.8946   12.7061  O     
17   C       -26.5371    8.5590   21.1619  C     
18   C       -26.7425    9.8674   20.6444  C     
19   C       -27.2826   10.9003   21.4333  C     
20   C       -27.6496   10.6571   22.7712  C     
21   C       -27.4878    9.3639   23.3009  C     
22   C       -26.9336    8.3379   22.5128  C     
23   O       -28.2157   11.6477   23.5310  O     
24   C       -27.3026   12.2694   24.4572  C     
25   H       -26.1794    5.8068   21.5958  H     
26   H       -24.1061    3.7456   18.3486  H     
27   H       -23.7466    4.8177   17.1114  H     
28   H       -25.6847    8.6832   16.6462  H     
29   H       -24.1292    9.4996   16.5838  H     
30   H       -25.1295    7.2656   14.7300  H     
31   H       -24.9107    8.9720   14.3005  H     
32   H       -22.4692    8.7943   14.6123  H     
33   H       -22.8536    5.8266   15.2889  H     
34   H       -21.3303    6.7335   15.2988  H     
35   H       -22.0340    8.0768   17.1751  H     
36   H       -22.2223    6.4075   17.5853  H     
37   H       -26.4858   10.0972   19.6773  H     
38   H       -27.4159   11.8356   21.0345  H     
39   H       -27.7667    9.1641   24.2645  H     
40   H       -26.8146    7.4349   22.9659  H     
41   H       -26.8840   11.5426   25.1606  H     
42   H       -27.8587   13.0133   25.0301  H     
43   H       -26.4905   12.7783   23.9295  H     
@<TRIPOS>BOND
     1    1    2 2
     2    1    6 1
     3    2    3 1
     4    2   17 1
     5    3    4 2
     6    4    5 1
     7    4    8 1
     8    5    6 2
     9    5    7 1
    10    8    9 1
    11    8   13 1
    12    9   10 1
    13   10   11 1
    14   11   12 1
    15   11   14 1
    16   12   13 1
    17   14   15 1
    18   14   16 2
    19   17   18 2
    20   17   22 1
    21   18   19 1
    22   19   20 2
    23   20   21 1
    24   20   23 1
    25   21   22 2
    26   23   24 1
    27    1   25 1
    28    7   26 1
    29    7   27 1
    30    9   28 1
    31    9   29 1
    32   10   30 1
    33   10   31 1
    34   11   32 1
    35   12   33 1
    36   12   34 1
    37   13   35 1
    38   13   36 1
    39   18   37 1
    40   19   38 1
    41   21   39 1
    42   22   40 1
    43   24   41 1
    44   24   42 1
    45   24   43 1
@<TRIPOS>PROPERTY_DATA
  Total_Score	| 8.6702
  Crash		| -1.1948
  Polar		| 5.6907
  FragIndex	| 1
  FragRMSD	| 0.398

