@<TRIPOS>MOLECULE
BindingDB_50330590
 60 62 0 0 0
SMALL
NO_CHARGES


@<TRIPOS>ATOM
1    C       -25.6661    6.2258   20.5231  C     
2    C       -25.8809    7.4785   19.9010  C     
3    N       -25.3774    7.5970   18.6327  N     
4    C       -24.7216    6.6344   17.9173  C     
5    C       -24.5863    5.3848   18.5821  C     
6    N       -25.0543    5.2301   19.8465  N     
7    N       -24.1338    4.2585   18.0044  N     
8    N       -24.2312    6.9326   16.6645  N     
9    C       -24.9717    7.7730   15.7323  C     
10   C       -24.1184    8.9626   15.2055  C     
11   C       -22.7617    8.4392   14.5838  C     
12   C       -22.0455    7.5581   15.6545  C     
13   C       -22.9546    6.4251   16.1812  C     
14   C       -22.8119    7.7226   13.2707  C     
15   O       -23.8272    7.8496   12.3786  O     
16   O       -21.7802    6.9451   12.8726  O     
17   C       -26.5264    8.6031   20.5153  C     
18   C       -27.3023    8.4872   21.7034  C     
19   C       -27.9428    9.5975   22.2937  C     
20   C       -27.7688   10.8748   21.7240  C     
21   C       -27.0248   11.0227   20.5327  C     
22   C       -26.4325    9.8935   19.9328  C     
23   O       -26.8916   12.2596   19.9452  O     
24   C       -25.5230   12.6333   19.7076  C     
25   O       -28.3883   11.9768   22.2542  O     
26   C       -27.6311   12.6803   23.2599  C     
27   O       -28.7080    9.5545   23.4324  O     
28   C       -29.8669    8.6946   23.4895  C     
29   C       -24.9080    9.9337   14.2619  C     
30   C       -25.9313   10.8967   14.9225  C     
31   C       -25.3348   11.8598   15.9822  C     
32   H       -25.9721    6.0239   21.4745  H     
33   H       -24.1186    3.4350   18.5178  H     
34   H       -23.8741    4.2482   17.0673  H     
35   H       -25.2782    7.1431   14.8931  H     
36   H       -25.8891    8.1714   16.1728  H     
37   H       -23.8591    9.5538   16.0865  H     
38   H       -22.1148    9.3017   14.4158  H     
39   H       -21.1145    7.1271   15.2665  H     
40   H       -21.7660    8.1853   16.5028  H     
41   H       -22.3729    5.9241   16.9622  H     
42   H       -23.1415    5.7100   15.3799  H     
43   H       -27.4329    7.5809   22.1540  H     
44   H       -25.9119   10.0274   19.0569  H     
45   H       -24.9247   12.5458   20.6168  H     
46   H       -25.5024   13.6698   19.3774  H     
47   H       -25.0768   12.0167   18.9249  H     
48   H       -27.3837   12.0328   24.1062  H     
49   H       -28.2431   13.5024   23.6338  H     
50   H       -26.7089   13.1032   22.8526  H     
51   H       -30.5147    8.8135   22.6082  H     
52   H       -30.4415    8.9409   24.3799  H     
53   H       -29.5428    7.6433   23.5614  H     
54   H       -24.1920   10.5574   13.7266  H     
55   H       -25.4677    9.3584   13.5273  H     
56   H       -26.3605   11.5239   14.1287  H     
57   H       -26.7538   10.3396   15.3787  H     
58   H       -25.0193   11.2904   16.8620  H     
59   H       -26.0785   12.6036   16.2871  H     
60   H       -24.4660   12.3857   15.5798  H     
@<TRIPOS>BOND
     1    1    2 2
     2    1    6 1
     3    2    3 1
     4    2   17 1
     5    3    4 2
     6    4    5 1
     7    4    8 1
     8    5    6 2
     9    5    7 1
    10    8    9 1
    11    8   13 1
    12    9   10 1
    13   10   11 1
    14   10   29 1
    15   11   12 1
    16   11   14 1
    17   12   13 1
    18   14   15 1
    19   14   16 2
    20   17   18 2
    21   17   22 1
    22   18   19 1
    23   19   20 2
    24   19   27 1
    25   20   21 1
    26   20   25 1
    27   21   22 2
    28   21   23 1
    29   23   24 1
    30   25   26 1
    31   27   28 1
    32   29   30 1
    33   30   31 1
    34    1   32 1
    35    7   33 1
    36    7   34 1
    37    9   35 1
    38    9   36 1
    39   10   37 1
    40   11   38 1
    41   12   39 1
    42   12   40 1
    43   13   41 1
    44   13   42 1
    45   18   43 1
    46   22   44 1
    47   24   45 1
    48   24   46 1
    49   24   47 1
    50   26   48 1
    51   26   49 1
    52   26   50 1
    53   28   51 1
    54   28   52 1
    55   28   53 1
    56   29   54 1
    57   29   55 1
    58   30   56 1
    59   30   57 1
    60   31   58 1
    61   31   59 1
    62   31   60 1
@<TRIPOS>PROPERTY_DATA
  Total_Score	| 7.3159
  Crash		| -2.4368
  Polar		| 5.2608
  FragIndex	| 1
  FragRMSD	| 0.662

