@<TRIPOS>MOLECULE
BindingDB_50330606
 43 45 0 0 0
SMALL
NO_CHARGES


@<TRIPOS>ATOM
1    C       -22.5412    7.0657   16.6640  C     
2    C       -22.5423    6.6866   15.1723  C     
3    C       -22.7564    7.9525   14.2925  C     
4    C       -22.9592    7.5672   12.8712  C     
5    O       -22.0492    6.7834   12.2467  O     
6    O       -24.0073    7.9937   12.1275  O     
7    C       -23.8067    8.9471   14.9040  C     
8    C       -24.5179    8.5116   16.2270  C     
9    N       -23.8712    7.4964   17.0371  N     
10   C       -24.5159    7.0071   18.1428  C     
11   N       -25.2348    7.8760   18.9140  N     
12   C       -24.4893    5.6614   18.6001  C     
13   N       -24.0281    4.6153   17.8878  N     
14   N       -25.0779    5.3492   19.7792  N     
15   C       -25.7502    6.2517   20.5344  C     
16   C       -25.8728    7.5913   20.0909  C     
17   C       -26.5715    8.6419   20.8006  C     
18   C       -27.4388    8.3915   21.9086  C     
19   C       -26.4237   10.0036   20.3905  C     
20   C       -27.0966   11.0502   21.0534  C     
21   C       -27.9661   10.7590   22.1185  C     
22   C       -28.1503    9.4292   22.5475  C     
23   O       -28.9565    9.2500   23.6363  O     
24   C       -30.2107    8.5659   23.3930  C     
25   H       -22.1263    6.2595   17.2629  H     
26   H       -21.8705    7.9169   16.8095  H     
27   H       -21.5852    6.2147   14.9212  H     
28   H       -23.3376    5.9530   14.9805  H     
29   H       -21.7971    8.4920   14.2867  H     
30   H       -23.2734    9.8791   15.1275  H     
31   H       -24.5870    9.2351   14.1848  H     
32   H       -24.7088    9.4040   16.8363  H     
33   H       -25.5086    8.1157   15.9429  H     
34   H       -24.1192    3.7156   18.2578  H     
35   H       -23.7021    4.7397   16.9825  H     
36   H       -26.1576    5.9201   21.4082  H     
37   H       -27.5913    7.4425   22.2771  H     
38   H       -25.7795   10.2709   19.6283  H     
39   H       -26.9551   12.0201   20.7614  H     
40   H       -28.4456   11.5252   22.6022  H     
41   H       -30.7701    9.0252   22.5606  H     
42   H       -30.8403    8.6640   24.2876  H     
43   H       -30.0203    7.5174   23.1615  H     
@<TRIPOS>BOND
     1    1    2 1
     2    1    9 1
     3    2    3 1
     4    3    4 1
     5    3    7 1
     6    4    5 2
     7    4    6 1
     8    7    8 1
     9    8    9 1
    10    9   10 1
    11   10   11 2
    12   10   12 1
    13   11   16 1
    14   12   13 1
    15   12   14 2
    16   14   15 1
    17   15   16 2
    18   16   17 1
    19   17   18 1
    20   17   19 2
    21   18   22 2
    22   19   20 1
    23   20   21 2
    24   21   22 1
    25   22   23 1
    26   23   24 1
    27    1   25 1
    28    1   26 1
    29    2   27 1
    30    2   28 1
    31    3   29 1
    32    7   30 1
    33    7   31 1
    34    8   32 1
    35    8   33 1
    36   13   34 1
    37   13   35 1
    38   15   36 1
    39   18   37 1
    40   19   38 1
    41   20   39 1
    42   21   40 1
    43   24   41 1
    44   24   42 1
    45   24   43 1
@<TRIPOS>PROPERTY_DATA
  Total_Score	| 8.7152
  Crash		| -1.1612
  Polar		| 5.5377
  FragIndex	| 1
  FragRMSD	| 0.359

