@<TRIPOS>MOLECULE
BindingDB_50330599
 55 57 0 0 0
SMALL
NO_CHARGES


@<TRIPOS>ATOM
1    C       -25.6409    5.9066   20.7719  C     
2    C       -25.8394    7.2769   20.5098  C     
3    N       -25.3405    7.7035   19.3081  N     
4    C       -24.7079    6.9482   18.3581  C     
5    C       -24.6063    5.5675   18.6486  C     
6    N       -25.0602    5.1142   19.8433  N     
7    N       -24.1948    4.6312   17.7762  N     
8    N       -24.1964    7.5692   17.2411  N     
9    C       -24.8616    8.7220   16.6601  C     
10   C       -24.8126    8.6982   15.1088  C     
11   C       -23.3631    8.5015   14.5781  C     
12   C       -22.7491    7.2305   15.2318  C     
13   C       -22.8400    7.3150   16.7766  C     
14   C       -23.3404    8.4953   13.0955  C     
15   O       -23.4688    9.6889   12.4593  O     
16   O       -23.1875    7.3494   12.3864  O     
17   C       -26.4858    8.1943   21.4122  C     
18   C       -26.9528    7.8218   22.7003  C     
19   C       -27.6351    8.7017   23.5677  C     
20   C       -27.8816   10.0312   23.1323  C     
21   C       -27.3871   10.4506   21.8771  C     
22   C       -26.7125    9.5400   21.0401  C     
23   O       -27.4492   11.7809   21.5669  O     
24   C       -28.6100   12.2023   20.8219  C     
25   O       -28.4552   10.9299   24.0074  O     
26   C       -29.8932   10.9204   24.0866  C     
27   O       -27.9215    8.1326   24.7993  O     
28   C       -28.0426    8.8847   26.0169  C     
29   C       -23.5081    9.9080   11.0518  C     
30   H       -25.9443    5.4568   21.6312  H     
31   H       -24.1885    3.6964   18.0412  H     
32   H       -23.9611    4.8658   16.8674  H     
33   H       -25.9185    8.7678   16.9435  H     
34   H       -24.3871    9.6350   17.0197  H     
35   H       -25.4421    7.8791   14.7477  H     
36   H       -25.2271    9.6363   14.7246  H     
37   H       -22.7557    9.3549   14.8930  H     
38   H       -23.2825    6.3370   14.8952  H     
39   H       -21.6975    7.1304   14.9394  H     
40   H       -22.2205    8.1466   17.1127  H     
41   H       -22.3782    6.4228   17.2044  H     
42   H       -26.7689    6.8850   23.0546  H     
43   H       -26.3535    9.8876   20.1534  H     
44   H       -28.6239   11.7702   19.8150  H     
45   H       -28.5606   13.2891   20.7077  H     
46   H       -29.5340   11.9565   21.3333  H     
47   H       -30.3278   11.4343   23.2254  H     
48   H       -30.1928   11.4744   24.9812  H     
49   H       -30.3162    9.9088   24.1596  H     
50   H       -27.0990    9.4000   26.2547  H     
51   H       -28.2550    8.1893   26.8232  H     
52   H       -28.8569    9.6117   25.9436  H     
53   H       -22.6342    9.4655   10.5694  H     
54   H       -23.5141   10.9820   10.8567  H     
55   H       -24.4176    9.4707   10.6327  H     
@<TRIPOS>BOND
     1    1    2 2
     2    1    6 1
     3    2    3 1
     4    2   17 1
     5    3    4 2
     6    4    5 1
     7    4    8 1
     8    5    6 2
     9    5    7 1
    10    8    9 1
    11    8   13 1
    12    9   10 1
    13   10   11 1
    14   11   12 1
    15   11   14 1
    16   12   13 1
    17   14   15 1
    18   14   16 2
    19   15   29 1
    20   17   18 2
    21   17   22 1
    22   18   19 1
    23   19   20 2
    24   19   27 1
    25   20   21 1
    26   20   25 1
    27   21   22 2
    28   21   23 1
    29   23   24 1
    30   25   26 1
    31   27   28 1
    32    1   30 1
    33    7   31 1
    34    7   32 1
    35    9   33 1
    36    9   34 1
    37   10   35 1
    38   10   36 1
    39   11   37 1
    40   12   38 1
    41   12   39 1
    42   13   40 1
    43   13   41 1
    44   18   42 1
    45   22   43 1
    46   24   44 1
    47   24   45 1
    48   24   46 1
    49   26   47 1
    50   26   48 1
    51   26   49 1
    52   28   50 1
    53   28   51 1
    54   28   52 1
    55   29   53 1
    56   29   54 1
    57   29   55 1
@<TRIPOS>PROPERTY_DATA
  Total_Score	| 7.9101
  Crash		| -2.0076
  Polar		| 4.5236
  FragIndex	| 1
  FragRMSD	| 0.976

