@<TRIPOS>MOLECULE
BindingDB_50330589
 57 59 0 0 0
SMALL
NO_CHARGES


@<TRIPOS>ATOM
1    C       -25.7257    6.3362   20.9033  C     
2    C       -25.8799    7.6447   20.3925  C     
3    N       -25.2453    7.8821   19.2101  N     
4    C       -24.5013    6.9998   18.4845  C     
5    C       -24.4667    5.6750   18.9896  C     
6    N       -25.0593    5.4104   20.1767  N     
7    N       -23.9779    4.6157   18.3232  N     
8    N       -23.8755    7.4538   17.3530  N     
9    C       -24.5220    8.4482   16.5182  C     
10   C       -23.9063    8.6352   15.0884  C     
11   C       -23.4786    7.2233   14.5400  C     
12   C       -22.5066    6.4758   15.5296  C     
13   C       -22.5479    7.0320   16.9796  C     
14   C       -22.9459    7.2685   13.1484  C     
15   O       -21.6528    6.9766   12.8833  O     
16   O       -23.8011    7.1914   12.1023  O     
17   C       -26.6066    8.7026   21.0321  C     
18   C       -26.5052   10.0371   20.5613  C     
19   C       -27.2239   11.0910   21.1572  C     
20   C       -28.0767   10.8322   22.2518  C     
21   C       -28.1931    9.5169   22.7484  C     
22   C       -27.4680    8.4703   22.1381  C     
23   O       -28.9539    9.2823   23.8663  O     
24   C       -30.1749    8.5540   23.6414  C     
25   O       -28.6869   11.8745   22.9013  O     
26   C       -30.0457   12.1158   22.4838  C     
27   O       -27.0555   12.3800   20.7307  O     
28   C       -27.7735   12.7266   19.5328  C     
29   C       -24.8760    9.4522   14.1557  C     
30   C       -24.2345   10.6939   13.4975  C     
31   H       -26.1075    6.0520   21.8005  H     
32   H       -24.0474    3.7323   18.7073  H     
33   H       -23.6358    4.7174   17.4243  H     
34   H       -25.5588    8.1232   16.3788  H     
35   H       -24.5370    9.4058   17.0447  H     
36   H       -22.9932    9.2201   15.2125  H     
37   H       -24.4017    6.6291   14.5017  H     
38   H       -22.7543    5.4071   15.5367  H     
39   H       -21.4630    6.5604   15.2062  H     
40   H       -21.9027    7.9097   17.0283  H     
41   H       -22.0947    6.3215   17.6704  H     
42   H       -25.8726   10.2621   19.7913  H     
43   H       -27.5652    7.5356   22.5332  H     
44   H       -30.7839    9.0108   22.8537  H     
45   H       -30.7422    8.5676   24.5760  H     
46   H       -29.9673    7.5115   23.3801  H     
47   H       -30.1229   12.2670   21.4024  H     
48   H       -30.3976   13.0205   22.9882  H     
49   H       -30.6961   11.2870   22.7783  H     
50   H       -27.4243   12.1397   18.6775  H     
51   H       -27.5890   13.7806   19.3241  H     
52   H       -28.8502   12.5800   19.6548  H     
53   H       -25.2588    8.8108   13.3552  H     
54   H       -25.7486    9.8059   14.7171  H     
55   H       -23.9178   11.4049   14.2653  H     
56   H       -24.9572   11.1903   12.8431  H     
57   H       -23.3682   10.4040   12.9013  H     
@<TRIPOS>BOND
     1    1    2 2
     2    1    6 1
     3    2    3 1
     4    2   17 1
     5    3    4 2
     6    4    5 1
     7    4    8 1
     8    5    6 2
     9    5    7 1
    10    8    9 1
    11    8   13 1
    12    9   10 1
    13   10   11 1
    14   10   29 1
    15   11   12 1
    16   11   14 1
    17   12   13 1
    18   14   15 1
    19   14   16 2
    20   17   18 2
    21   17   22 1
    22   18   19 1
    23   19   20 2
    24   19   27 1
    25   20   21 1
    26   20   25 1
    27   21   22 2
    28   21   23 1
    29   23   24 1
    30   25   26 1
    31   27   28 1
    32   29   30 1
    33    1   31 1
    34    7   32 1
    35    7   33 1
    36    9   34 1
    37    9   35 1
    38   10   36 1
    39   11   37 1
    40   12   38 1
    41   12   39 1
    42   13   40 1
    43   13   41 1
    44   18   42 1
    45   22   43 1
    46   24   44 1
    47   24   45 1
    48   24   46 1
    49   26   47 1
    50   26   48 1
    51   26   49 1
    52   28   50 1
    53   28   51 1
    54   28   52 1
    55   29   53 1
    56   29   54 1
    57   30   55 1
    58   30   56 1
    59   30   57 1
@<TRIPOS>PROPERTY_DATA
  Total_Score	| 8.1531
  Crash		| -1.5885
  Polar		| 5.1813
  FragIndex	| 1
  FragRMSD	| 0.744

