@<TRIPOS>MOLECULE
BindingDB_50330586
 57 59 0 0 0
SMALL
NO_CHARGES


@<TRIPOS>ATOM
1    C       -25.6265    5.9852   20.6966  C     
2    C       -25.8188    7.2853   20.1757  C     
3    N       -25.2363    7.5231   18.9683  N     
4    C       -24.5123    6.6536   18.2356  C     
5    C       -24.3861    5.3503   18.7524  C     
6    N       -24.9345    5.0853   19.9739  N     
7    N       -23.8888    4.3041   18.0649  N     
8    N       -23.8875    7.0649   17.0241  N     
9    C       -24.7253    7.7784   16.0947  C     
10   C       -23.9445    8.8533   15.1642  C     
11   C       -22.6589    8.4166   14.3114  C     
12   C       -21.8403    7.5778   15.5301  C     
13   C       -22.4842    6.8869   16.8442  C     
14   C       -22.9123    7.7933   12.8773  C     
15   O       -21.9966    6.6412   12.7250  O     
16   O       -23.4929    8.6489   11.8773  O     
17   C       -26.5260    8.3091   20.8884  C     
18   C       -27.3332    8.0553   22.0313  C     
19   C       -28.1801    8.9913   22.6230  C     
20   C       -28.2496   10.3212   22.0445  C     
21   C       -27.1512   10.6832   21.2061  C     
22   C       -26.4245    9.6824   20.5464  C     
23   O       -26.9481   11.9566   20.6892  O     
24   C       -27.1993   13.2547   21.3333  C     
25   O       -29.0403   11.3496   22.5372  O     
26   C       -30.3894   11.7197   22.0607  C     
27   O       -28.7236    8.6949   23.8278  O     
28   C       -29.9659    7.9497   23.7869  C     
29   C       -25.6175    6.6915   15.3346  C     
30   C       -25.2411    6.4952   13.8497  C     
31   H       -25.9318    5.7193   21.6226  H     
32   H       -23.8804    3.4267   18.4788  H     
33   H       -23.6951    4.3710   17.1154  H     
34   H       -25.4568    8.3994   16.6399  H     
35   H       -24.6610    9.2945   14.4607  H     
36   H       -23.7183    9.6933   15.8591  H     
37   H       -22.0576    9.3020   14.2849  H     
38   H       -21.1503    6.8641   15.0732  H     
39   H       -21.1806    8.3062   16.0345  H     
40   H       -22.0055    7.2351   17.7884  H     
41   H       -22.0389    5.8704   16.9610  H     
42   H       -27.4026    7.0876   22.3993  H     
43   H       -25.7905    9.9190   19.7582  H     
44   H       -28.3100   13.3744   21.5021  H     
45   H       -26.8074   14.0643   20.6748  H     
46   H       -26.7431   13.2407   22.3526  H     
47   H       -30.4375   12.0976   21.0704  H     
48   H       -30.7079   12.4591   22.7676  H     
49   H       -31.0181   10.8780   22.1236  H     
50   H       -30.7752    8.4723   23.2910  H     
51   H       -30.2619    7.7838   24.8208  H     
52   H       -29.8136    6.9880   23.2970  H     
53   H       -25.4192    5.6999   15.7508  H     
54   H       -26.6482    6.9157   15.5953  H     
55   H       -25.5920    7.5542   13.8852  H     
56   H       -25.9882    5.8448   13.3108  H     
57   H       -25.1155    7.2394   13.1121  H     
@<TRIPOS>BOND
     1    1    2 2
     2    1    6 1
     3    2    3 1
     4    2   17 1
     5    3    4 2
     6    4    5 1
     7    4    8 1
     8    5    6 2
     9    5    7 1
    10    8    9 1
    11    8   13 1
    12    9   10 1
    13    9   29 1
    14   10   11 1
    15   11   12 1
    16   11   14 1
    17   12   13 1
    18   14   15 1
    19   14   16 2
    20   17   18 2
    21   17   22 1
    22   18   19 1
    23   19   20 2
    24   19   27 1
    25   20   21 1
    26   20   25 1
    27   21   22 2
    28   21   23 1
    29   23   24 1
    30   25   26 1
    31   27   28 1
    32   29   30 1
    33    1   31 1
    34    7   32 1
    35    7   33 1
    36    9   34 1
    37   10   35 1
    38   10   36 1
    39   11   37 1
    40   12   38 1
    41   12   39 1
    42   13   40 1
    43   13   41 1
    44   18   42 1
    45   22   43 1
    46   24   44 1
    47   24   45 1
    48   24   46 1
    49   26   47 1
    50   26   48 1
    51   26   49 1
    52   28   50 1
    53   28   51 1
    54   28   52 1
    55   29   53 1
    56   29   54 1
    57   30   55 1
    58   30   56 1
    59   30   57 1
@<TRIPOS>PROPERTY_DATA
  Total_Score	| 6.4282
  Crash		| -4.3060
  Polar		| 4.4195
  FragIndex	| 1
  FragRMSD	| 0.835

