@<TRIPOS>MOLECULE
BindingDB_50311800
 77 82 0 0 0
SMALL
NO_CHARGES


@<TRIPOS>ATOM
1    N         6.9723    3.2278    4.7149  N     
2    C         6.1633    4.4998    4.7475  C     
3    C         8.3596    3.6637    4.5255  C     
4    C         6.0287    4.6257    6.2866  C     
5    C         8.6972    4.4900    5.8414  C     
6    C         8.3402    4.3288    3.0753  C     
7    C         6.9764    4.5892    2.4809  C     
8    C         5.8835    4.6057    3.3192  C     
9    C         6.8860    4.8111    1.1042  C     
10   C         7.7076    5.7826    0.4817  C     
11   C         7.5674    6.0740   -0.8872  C     
12   C         6.6290    5.3814   -1.6812  C     
13   C         5.8373    4.3840   -1.0725  C     
14   C         5.9565    4.1078    0.2997  C     
15   C         6.4835    5.6989   -3.1291  C     
16   C         5.5542    6.9090   -3.4080  C     
17   C         4.1062    6.7505   -2.8716  C     
18   O         3.3898    7.9909   -3.0586  O     
19   C         2.0393    7.9290   -2.8151  C     
20   C         1.5536    7.7594   -1.4941  C     
21   C         0.1741    7.7528   -1.2371  C     
22   C        -0.7421    7.9185   -2.2915  C     
23   C        -0.2727    8.1161   -3.6058  C     
24   C         1.1136    8.1314   -3.8682  C     
25   Cl        1.6682    8.4274   -5.4468  Cl    
26   F         2.3797    7.6217   -0.4929  F     
27   F        -1.1517    8.2884   -4.5600  F     
28   C         4.5940    4.8493    2.9776  C     
29   C        -0.6416    5.4174    4.2135  C     
30   C        -0.2834    5.7876    5.5279  C     
31   C         1.0125    6.2472    5.8070  C     
32   C         1.9556    6.3507    4.7742  C     
33   C         1.6434    5.9649    3.4475  C     
34   C         0.3236    5.4879    3.1708  C     
35   C         2.6659    6.2084    2.3768  C     
36   N         4.0689    6.0782    2.7485  N     
37   O         3.9209    3.8226    2.9238  O     
38   C         4.9393    7.2537    2.7225  C     
39   C         4.5494    8.7202    3.0327  C     
40   C         5.2751    7.8733    4.0850  C     
41   Cl       -0.1297    5.0025    1.5999  Cl    
42   Cl       -2.2505    4.9195    3.9585  Cl    
43   C         7.5055    4.6260    6.8972  C     
44   H         6.8891    2.6891    5.5849  H     
45   H         6.6823    2.6183    3.9374  H     
46   H         6.6701    5.4838    4.7157  H     
47   H         8.9868    2.7635    4.5002  H     
48   H         5.5030    5.5473    6.5662  H     
49   H         5.4323    3.7942    6.6802  H     
50   H         9.5559    4.0324    6.3433  H     
51   H         9.0005    5.4972    5.5504  H     
52   H         8.9045    5.2669    3.1054  H     
53   H         8.8764    3.6536    2.3948  H     
54   H         8.3863    6.3198    1.0328  H     
55   H         8.1608    6.8017   -1.2981  H     
56   H         5.1516    3.8557   -1.6215  H     
57   H         5.3591    3.3845    0.7096  H     
58   H         7.4724    5.9149   -3.5408  H     
59   H         6.1093    4.8293   -3.6721  H     
60   H         5.9956    7.8113   -2.9748  H     
61   H         5.4991    7.0561   -4.4933  H     
62   H         3.6186    5.9312   -3.4118  H     
63   H         4.1479    6.4992   -1.8077  H     
64   H        -0.1772    7.6261   -0.2827  H     
65   H        -1.7462    7.9104   -2.0948  H     
66   H        -0.9678    5.7381    6.2836  H     
67   H         1.2588    6.5350    6.7579  H     
68   H         2.8743    6.7379    5.0084  H     
69   H         2.5175    5.5306    1.5317  H     
70   H         2.4245    7.2089    2.0266  H     
71   H         5.7748    7.2501    2.0260  H     
72   H         5.1769    9.4747    2.5427  H     
73   H         3.4744    8.9179    3.1329  H     
74   H         4.6549    7.5893    4.9346  H     
75   H         6.3179    8.1667    4.2493  H     
76   H         7.6406    5.5475    7.4650  H     
77   H         7.5789    3.7937    7.6009  H     
@<TRIPOS>BOND
     1    1    2 1
     2    1    3 1
     3    2    4 1
     4    2    8 1
     5    3    5 1
     6    3    6 1
     7    4   43 1
     8    5   43 1
     9    6    7 1
    10    7    8 2
    11    7    9 1
    12    8   28 1
    13    9   10 2
    14    9   14 1
    15   10   11 1
    16   11   12 2
    17   12   13 1
    18   12   15 1
    19   13   14 2
    20   15   16 1
    21   16   17 1
    22   17   18 1
    23   18   19 1
    24   19   20 2
    25   19   24 1
    26   20   21 1
    27   20   26 1
    28   21   22 2
    29   22   23 1
    30   23   24 2
    31   23   27 1
    32   24   25 1
    33   28   36 am
    34   28   37 2
    35   29   30 2
    36   29   34 1
    37   29   42 1
    38   30   31 1
    39   31   32 2
    40   32   33 1
    41   33   34 2
    42   33   35 1
    43   34   41 1
    44   35   36 1
    45   36   38 1
    46   38   39 1
    47   38   40 1
    48   39   40 1
    49    1   44 1
    50    1   45 1
    51    2   46 1
    52    3   47 1
    53    4   48 1
    54    4   49 1
    55    5   50 1
    56    5   51 1
    57    6   52 1
    58    6   53 1
    59   10   54 1
    60   11   55 1
    61   13   56 1
    62   14   57 1
    63   15   58 1
    64   15   59 1
    65   16   60 1
    66   16   61 1
    67   17   62 1
    68   17   63 1
    69   21   64 1
    70   22   65 1
    71   30   66 1
    72   31   67 1
    73   32   68 1
    74   35   69 1
    75   35   70 1
    76   38   71 1
    77   39   72 1
    78   39   73 1
    79   40   74 1
    80   40   75 1
    81   43   76 1
    82   43   77 1
@<TRIPOS>PROPERTY_DATA
  Total_Score	| 10.9466
  Crash		| -1.8022
  Polar		| 0.0000
  FragIndex	| 1
  FragRMSD	| 0.495

