@<TRIPOS>MOLECULE
BindingDB_50311805
 84 89 0 0 0
SMALL
NO_CHARGES


@<TRIPOS>ATOM
1    N         8.0153    3.6182    4.5515  N     
2    C         7.0917    4.8015    4.5870  C     
3    C         9.2611    4.0843    3.9260  C     
4    C         7.4506    5.3023    6.0140  C     
5    C         9.8271    5.1976    4.8884  C     
6    C         8.8342    4.4544    2.4408  C     
7    C         7.3626    4.6369    2.1847  C     
8    C         6.4945    4.7216    3.2541  C     
9    C         6.9515    4.8161    0.8652  C     
10   C         7.5469    5.8081    0.0527  C     
11   C         7.0858    6.0341   -1.2614  C     
12   C         6.0230    5.2748   -1.7943  C     
13   C         5.4744    4.2427   -1.0074  C     
14   C         5.9278    4.0091    0.3050  C     
15   C         5.5402    5.5500   -3.1789  C     
16   C         4.9193    6.9643   -3.3928  C     
17   C         3.5137    7.1866   -2.7539  C     
18   O         2.8794    8.2935   -3.4409  O     
19   C         1.5247    8.4137   -3.2676  C     
20   C         0.9919    8.8461   -2.0319  C     
21   C        -0.4001    8.9658   -1.8595  C     
22   C        -1.2664    8.6834   -2.9244  C     
23   C        -0.7546    8.3127   -4.1777  C     
24   C         0.6400    8.1923   -4.3577  C     
25   Cl        1.2578    7.8293   -5.8948  Cl    
26   F         1.7868    9.1772   -1.0507  F     
27   F        -1.5920    8.1034   -5.1653  F     
28   C         5.1391    4.8697    3.2189  C     
29   C        -0.0967    5.1587    1.9982  C     
30   C         0.1694    5.8925    0.8245  C     
31   C         1.3793    6.5863    0.6648  C     
32   C         2.3096    6.5993    1.7142  C     
33   C         2.1006    5.8472    2.8921  C     
34   C         0.8908    5.0713    3.0151  C     
35   C         3.1281    6.0005    3.9732  C     
36   N         4.5003    6.0322    3.4773  N     
37   O         4.5398    3.8024    3.1821  O     
38   C         5.1788    7.2981    3.2365  C     
39   C         4.4879    8.6701    3.0808  C     
40   C         5.2293    8.3289    4.3807  C     
41   C         0.6862    4.1630    4.1704  C     
42   N         8.9454    5.5343    6.0855  N     
43   C        -2.2384    4.9765    3.0372  C     
44   O        -1.3161    4.5161    2.0372  O     
45   H         8.2173    3.2628    5.4917  H     
46   H         7.6151    2.8546    3.9995  H     
47   H         7.4591    5.7909    4.2661  H     
48   H         9.9629    3.2467    3.9066  H     
49   H         6.9213    6.2250    6.2783  H     
50   H         7.1644    4.5533    6.7612  H     
51   H        10.7976    4.8861    5.2853  H     
52   H         9.9988    6.1201    4.3303  H     
53   H         9.3774    5.3519    2.1436  H     
54   H         9.1750    3.6397    1.7974  H     
55   H         8.3000    6.3981    0.4141  H     
56   H         7.5328    6.7554   -1.8280  H     
57   H         4.7412    3.6390   -1.3847  H     
58   H         5.5121    3.2487    0.8517  H     
59   H         6.4009    5.4504   -3.8486  H     
60   H         4.8113    4.7968   -3.4889  H     
61   H         5.6127    7.7317   -3.0252  H     
62   H         4.8084    7.1015   -4.4774  H     
63   H         2.9401    6.2607   -2.8329  H     
64   H         3.6015    7.4408   -1.6942  H     
65   H        -0.7883    9.2651   -0.9586  H     
66   H        -2.2742    8.7761   -2.7977  H     
67   H        -0.5214    5.9236    0.0685  H     
68   H         1.5885    7.0712   -0.2117  H     
69   H         3.1555    7.1827    1.6146  H     
70   H         2.8617    6.9130    4.5184  H     
71   H         3.0729    5.2059    4.7171  H     
72   H         6.1150    7.2818    2.6804  H     
73   H         5.0121    9.4353    2.5107  H     
74   H         3.4043    8.7288    3.1843  H     
75   H         4.5891    8.1775    5.2457  H     
76   H         6.1693    8.8553    4.5219  H     
77   H         0.6072    4.7332    5.0909  H     
78   H         1.5210    3.4672    4.2598  H     
79   H        -0.2173    3.5761    4.0669  H     
80   H         9.0920    6.5190    6.3219  H     
81   H         9.2860    4.9815    6.8688  H     
82   H        -1.9790    4.5398    4.0096  H     
83   H        -3.2224    4.6169    2.7518  H     
84   H        -2.2869    6.0640    3.0942  H     
@<TRIPOS>BOND
     1    1    2 1
     2    1    3 1
     3    2    4 1
     4    2    8 1
     5    3    5 1
     6    3    6 1
     7    4   42 1
     8    5   42 1
     9    6    7 1
    10    7    8 2
    11    7    9 1
    12    8   28 1
    13    9   10 2
    14    9   14 1
    15   10   11 1
    16   11   12 2
    17   12   13 1
    18   12   15 1
    19   13   14 2
    20   15   16 1
    21   16   17 1
    22   17   18 1
    23   18   19 1
    24   19   20 2
    25   19   24 1
    26   20   21 1
    27   20   26 1
    28   21   22 2
    29   22   23 1
    30   23   24 2
    31   23   27 1
    32   24   25 1
    33   28   36 am
    34   28   37 2
    35   29   30 2
    36   29   34 1
    37   29   44 1
    38   30   31 1
    39   31   32 2
    40   32   33 1
    41   33   34 2
    42   33   35 1
    43   34   41 1
    44   35   36 1
    45   36   38 1
    46   38   39 1
    47   38   40 1
    48   39   40 1
    49   43   44 1
    50    1   45 1
    51    1   46 1
    52    2   47 1
    53    3   48 1
    54    4   49 1
    55    4   50 1
    56    5   51 1
    57    5   52 1
    58    6   53 1
    59    6   54 1
    60   10   55 1
    61   11   56 1
    62   13   57 1
    63   14   58 1
    64   15   59 1
    65   15   60 1
    66   16   61 1
    67   16   62 1
    68   17   63 1
    69   17   64 1
    70   21   65 1
    71   22   66 1
    72   30   67 1
    73   31   68 1
    74   32   69 1
    75   35   70 1
    76   35   71 1
    77   38   72 1
    78   39   73 1
    79   39   74 1
    80   40   75 1
    81   40   76 1
    82   41   77 1
    83   41   78 1
    84   41   79 1
    85   42   80 1
    86   42   81 1
    87   43   82 1
    88   43   83 1
    89   43   84 1
@<TRIPOS>PROPERTY_DATA
  Total_Score	| 14.6214
  Crash		| -4.0274
  Polar		| 2.9120
  FragIndex	| 1
  FragRMSD	| 0.559

