@<TRIPOS>MOLECULE
BindingDB_50259443
 81 86 0 0 0
SMALL
NO_CHARGES


@<TRIPOS>ATOM
1    C         6.0009    5.2540   -0.9663  C     
2    C         5.6713    5.3425   -2.4221  C     
3    C         5.0246    6.6766   -2.9010  C     
4    C         3.5447    6.8561   -2.4885  C     
5    O         2.9962    7.9506   -3.2512  O     
6    C         1.6514    8.1649   -3.0897  C     
7    C         1.1236    8.6542   -1.8722  C     
8    C        -0.2603    8.8846   -1.7385  C     
9    C        -1.1199    8.6824   -2.8313  C     
10   C        -0.5973    8.2214   -4.0588  C     
11   C         0.7853    7.9733   -4.1856  C     
12   N         7.8982    2.9040    5.7637  N     
13   C         7.0733    3.9303    6.3886  C     
14   N         8.4899    5.6863    5.4680  N     
15   C         9.2539    3.3336    5.4185  C     
16   C         6.4809    5.0626    4.1835  C     
17   C         7.2756    4.9123    3.0843  C     
18   C         6.8063    5.0240    1.7651  C     
19   C         5.8771    4.1199    1.2059  C     
20   C         5.4692    4.2437   -0.1401  C     
21   C         6.9061    6.1770   -0.3981  C     
22   C         7.2941    6.0701    0.9475  C     
23   C         5.1301    4.8843    4.1470  C     
24   O         4.7821    3.7190    4.2519  O     
25   N         4.2365    5.8835    4.2390  N     
26   C         3.0412    5.7612    5.0570  C     
27   C         1.6909    5.8664    4.4128  C     
28   C         1.3630    5.2525    3.1650  C     
29   C         0.0315    5.2790    2.6810  C     
30   C        -0.9904    5.8700    3.4515  C     
31   C        -0.6902    6.4505    4.6888  C     
32   C         0.6425    6.4805    5.1505  C     
33   C         7.4779    1.6347    5.5531  C     
34   C         6.2058    1.0877    6.0044  C     
35   O         8.2087    0.8357    4.9684  O     
36   C         4.3800    7.0161    3.3408  C     
37   C         3.7077    8.3829    3.5776  C     
38   C         5.2141    8.2301    3.8010  C     
39   Cl        2.5708    4.4358    2.2639  Cl    
40   Cl       -0.4353    4.6039    1.2004  Cl    
41   F         1.2639    7.5727   -5.3345  F     
42   F        -1.4089    8.0361   -5.0669  F     
43   F         1.9145    8.8984   -0.8652  F     
44   C         7.0764    5.2378    5.5342  C     
45   C         9.2900    4.7131    4.6925  C     
46   C         8.7304    4.7188    3.2389  C     
47   H         6.6087    5.2065   -2.9729  H     
48   H         5.0179    4.5175   -2.7176  H     
49   H         5.6079    7.5279   -2.5401  H     
50   H         5.0776    6.6973   -3.9956  H     
51   H         2.9999    5.9315   -2.6789  H     
52   H         3.4893    7.0887   -1.4229  H     
53   H        -0.6446    9.2161   -0.8459  H     
54   H        -2.1193    8.8718   -2.7363  H     
55   H         6.0414    3.6350    6.5674  H     
56   H         7.5037    4.1468    7.3668  H     
57   H         8.5416    6.5902    4.9959  H     
58   H         8.8765    5.7977    6.4106  H     
59   H         9.8177    3.4365    6.3506  H     
60   H         9.8065    2.6180    4.7989  H     
61   H         5.4915    3.3627    1.7576  H     
62   H         4.8107    3.5633   -0.5160  H     
63   H         7.3205    6.9176   -0.9694  H     
64   H         7.9341    6.7717    1.3284  H     
65   H         3.0264    4.8065    5.5887  H     
66   H         3.1465    6.5094    5.8476  H     
67   H        -1.9602    5.8708    3.1176  H     
68   H        -1.4439    6.8681    5.2475  H     
69   H         0.8136    6.9159    6.0640  H     
70   H         6.0906    1.2665    7.0729  H     
71   H         6.1350    0.0055    5.8427  H     
72   H         5.3768    1.5666    5.4756  H     
73   H         4.5204    6.7754    2.2900  H     
74   H         3.4168    8.9397    2.6798  H     
75   H         3.1088    8.5014    4.4788  H     
76   H         5.5100    8.2949    4.8458  H     
77   H         5.8404    8.6902    3.0289  H     
78   H         6.5363    6.0126    6.0875  H     
79   H        10.3286    5.0574    4.6713  H     
80   H         9.0231    3.7931    2.7300  H     
81   H         9.2465    5.5328    2.7295  H     
@<TRIPOS>BOND
     1    1    2 1
     2    1   20 2
     3    1   21 1
     4    2    3 1
     5    3    4 1
     6    4    5 1
     7    5    6 1
     8    6    7 2
     9    6   11 1
    10    7    8 1
    11    7   43 1
    12    8    9 2
    13    9   10 1
    14   10   11 2
    15   10   42 1
    16   11   41 1
    17   12   13 1
    18   12   15 1
    19   12   33 am
    20   13   44 1
    21   14   44 1
    22   14   45 1
    23   15   45 1
    24   16   17 2
    25   16   23 1
    26   16   44 1
    27   17   18 1
    28   17   46 1
    29   18   19 2
    30   18   22 1
    31   19   20 1
    32   21   22 2
    33   23   24 2
    34   23   25 am
    35   25   26 1
    36   25   36 1
    37   26   27 1
    38   27   28 2
    39   27   32 1
    40   28   29 1
    41   28   39 1
    42   29   30 2
    43   29   40 1
    44   30   31 1
    45   31   32 2
    46   33   34 1
    47   33   35 2
    48   36   37 1
    49   36   38 1
    50   37   38 1
    51   45   46 1
    52    2   47 1
    53    2   48 1
    54    3   49 1
    55    3   50 1
    56    4   51 1
    57    4   52 1
    58    8   53 1
    59    9   54 1
    60   13   55 1
    61   13   56 1
    62   14   57 1
    63   14   58 1
    64   15   59 1
    65   15   60 1
    66   19   61 1
    67   20   62 1
    68   21   63 1
    69   22   64 1
    70   26   65 1
    71   26   66 1
    72   30   67 1
    73   31   68 1
    74   32   69 1
    75   34   70 1
    76   34   71 1
    77   34   72 1
    78   36   73 1
    79   37   74 1
    80   37   75 1
    81   38   76 1
    82   38   77 1
    83   44   78 1
    84   45   79 1
    85   46   80 1
    86   46   81 1
@<TRIPOS>PROPERTY_DATA
  Total_Score	| 13.8366
  Crash		| -2.7286
  Polar		| 4.4087
  FragIndex	| 1
  FragRMSD	| 1.300

