@<TRIPOS>MOLECULE
BindingDB_50259436
 81 86 0 0 0
SMALL
NO_CHARGES


@<TRIPOS>ATOM
1    C         6.4577    5.2374   -1.1487  C     
2    C         6.1196    5.3863   -2.5950  C     
3    C         5.3525    6.6863   -2.9790  C     
4    C         3.8804    6.7435   -2.5035  C     
5    O         3.2736    7.9278   -3.0636  O     
6    C         1.9188    8.0490   -2.8836  C     
7    C        -0.3288    8.2806   -3.8247  C     
8    C        -0.8618    8.4221   -2.5314  C     
9    C        -0.0081    8.3954   -1.4146  C     
10   C         1.3772    8.2152   -1.5899  C     
11   N         7.6396    2.9376    5.7378  N     
12   C         6.7866    4.0111    6.2364  C     
13   N         8.4185    5.6713    5.5091  N     
14   C         9.0498    3.2890    5.6074  C     
15   C         6.5727    5.1643    3.9717  C     
16   C         7.4883    4.8945    2.9961  C     
17   C         7.1803    4.9465    1.6155  C     
18   C         7.7749    5.9373    0.7973  C     
19   C         7.4422    6.0617   -0.5623  C     
20   C         5.8707    4.2327   -0.3445  C     
21   C         6.2450    4.0745    1.0051  C     
22   C         5.2271    5.1320    3.7113  C     
23   O         4.7562    4.0159    3.8848  O     
24   N         4.4758    6.1120    3.1623  N     
25   C         3.1521    5.8298    2.6002  C     
26   C         2.0142    5.8970    3.5775  C     
27   C         0.6500    5.6661    3.2299  C     
28   C        -0.3668    5.8146    4.2116  C     
29   C        -0.0334    6.1526    5.5360  C     
30   C         1.3089    6.2915    5.9067  C     
31   C         2.3154    6.1453    4.9398  C     
32   C         7.1950    1.6914    5.4752  C     
33   C         5.8343    1.2232    5.6974  C     
34   O         7.9659    0.8323    5.0603  O     
35   C         5.0538    7.4215    2.9247  C     
36   C         4.3132    8.7573    3.1284  C     
37   C         5.2840    8.2605    4.1963  C     
38   Cl       -2.0149    5.5846    3.8866  Cl    
39   Cl        0.2065    5.1419    1.6703  Cl    
40   C         1.0592    8.1099   -4.0062  C     
41   Cl        1.6684    8.0190   -5.5846  Cl    
42   C         6.9824    5.3081    5.3902  C     
43   C         9.2557    4.6419    4.8655  C     
44   C         8.8993    4.6304    3.3464  C     
45   H         7.0614    5.3768   -3.1514  H     
46   H         5.5399    4.5292   -2.9498  H     
47   H         5.8831    7.5612   -2.5947  H     
48   H         5.3542    6.7680   -4.0705  H     
49   H         3.3645    5.8366   -2.8377  H     
50   H         3.8480    6.7909   -1.4109  H     
51   H        -0.9555    8.3216   -4.6323  H     
52   H        -1.8682    8.5562   -2.4041  H     
53   H        -0.3962    8.5116   -0.4766  H     
54   H         1.9931    8.2100   -0.7747  H     
55   H         5.7247    3.7675    6.2631  H     
56   H         7.0727    4.2217    7.2719  H     
57   H         8.5936    6.5591    5.0414  H     
58   H         8.6887    5.7681    6.4941  H     
59   H         9.4629    3.3857    6.6156  H     
60   H         9.6534    2.5332    5.0982  H     
61   H         8.4427    6.6035    1.1893  H     
62   H         7.9245    6.7676   -1.1218  H     
63   H         5.1769    3.5943   -0.7410  H     
64   H         5.8192    3.3168    1.5423  H     
65   H         3.0073    6.5042    1.7554  H     
66   H         3.1069    4.8351    2.1486  H     
67   H        -0.7602    6.2664    6.2479  H     
68   H         1.5558    6.4963    6.8777  H     
69   H         3.2803    6.2171    5.2563  H     
70   H         5.5426    1.4057    6.7338  H     
71   H         5.7277    0.1509    5.5094  H     
72   H         5.1474    1.7443    5.0317  H     
73   H         5.8856    7.4868    2.2231  H     
74   H         4.6717    9.6023    2.5379  H     
75   H         3.2658    8.7222    3.4171  H     
76   H         4.7952    7.9230    5.1105  H     
77   H         6.2245    8.8108    4.2648  H     
78   H         6.4190    6.1216    5.8571  H     
79   H        10.3032    4.9344    4.9835  H     
80   H         9.1985    3.6700    2.9180  H     
81   H         9.5199    5.3973    2.8841  H     
@<TRIPOS>BOND
     1    1    2 1
     2    1   19 2
     3    1   20 1
     4    2    3 1
     5    3    4 1
     6    4    5 1
     7    5    6 1
     8    6   10 1
     9    6   40 2
    10    7    8 2
    11    7   40 1
    12    8    9 1
    13    9   10 2
    14   11   12 1
    15   11   14 1
    16   11   32 am
    17   12   42 1
    18   13   42 1
    19   13   43 1
    20   14   43 1
    21   15   16 2
    22   15   22 1
    23   15   42 1
    24   16   17 1
    25   16   44 1
    26   17   18 2
    27   17   21 1
    28   18   19 1
    29   20   21 2
    30   22   23 2
    31   22   24 am
    32   24   25 1
    33   24   35 1
    34   25   26 1
    35   26   27 2
    36   26   31 1
    37   27   28 1
    38   27   39 1
    39   28   29 2
    40   28   38 1
    41   29   30 1
    42   30   31 2
    43   32   33 1
    44   32   34 2
    45   35   36 1
    46   35   37 1
    47   36   37 1
    48   40   41 1
    49   43   44 1
    50    2   45 1
    51    2   46 1
    52    3   47 1
    53    3   48 1
    54    4   49 1
    55    4   50 1
    56    7   51 1
    57    8   52 1
    58    9   53 1
    59   10   54 1
    60   12   55 1
    61   12   56 1
    62   13   57 1
    63   13   58 1
    64   14   59 1
    65   14   60 1
    66   18   61 1
    67   19   62 1
    68   20   63 1
    69   21   64 1
    70   25   65 1
    71   25   66 1
    72   29   67 1
    73   30   68 1
    74   31   69 1
    75   33   70 1
    76   33   71 1
    77   33   72 1
    78   35   73 1
    79   36   74 1
    80   36   75 1
    81   37   76 1
    82   37   77 1
    83   42   78 1
    84   43   79 1
    85   44   80 1
    86   44   81 1
@<TRIPOS>PROPERTY_DATA
  Total_Score	| 14.7859
  Crash		| -1.8118
  Polar		| 4.4485
  FragIndex	| 1
  FragRMSD	| 0.825

