@<TRIPOS>MOLECULE
BindingDB_50259440
 81 86 0 0 0
SMALL
NO_CHARGES


@<TRIPOS>ATOM
1    C         6.2448    5.1047   -1.1632  C     
2    C         5.8096    5.2242   -2.5877  C     
3    C         5.1711    6.5871   -2.9772  C     
4    C         3.7326    6.7946   -2.4581  C     
5    O         3.1747    7.9512   -3.1237  O     
6    C         1.8168    8.0918   -2.9867  C     
7    C         1.2352    8.2934   -1.7168  C     
8    C        -0.1590    8.4690   -1.5940  C     
9    C        -0.9768    8.4679   -2.7405  C     
10   C        -0.3967    8.2969   -4.0087  C     
11   C         0.9973    8.1349   -4.1376  C     
12   N         8.1359    2.8385    5.3542  N     
13   C         7.0900    3.6110    6.0164  C     
14   N         8.3303    5.6837    5.5151  N     
15   C         9.4433    3.4807    5.3533  C     
16   C         6.5531    4.9970    3.9643  C     
17   C         7.4670    4.9231    2.9481  C     
18   C         7.1049    4.9291    1.5719  C     
19   C         7.6430    5.8984    0.6897  C     
20   C         7.2342    5.9749   -0.6541  C     
21   C         5.7242    4.1105   -0.3013  C     
22   C         6.1664    4.0073    1.0344  C     
23   C         5.2078    5.1112    3.7260  C     
24   O         4.5745    4.0882    3.9622  O     
25   N         4.5962    6.1858    3.1846  N     
26   C         3.2547    6.0672    2.6417  C     
27   C         2.1091    6.0542    3.6088  C     
28   C         0.7745    5.8456    3.1546  C     
29   C        -0.3021    5.8176    4.0830  C     
30   C        -0.0627    6.0584    5.4440  C     
31   C         1.2471    6.2436    5.9057  C     
32   C         2.3122    6.2466    4.9967  C     
33   C         7.9105    1.6692    4.7107  C     
34   C         6.6251    0.9858    4.6490  C     
35   O         8.8364    1.1066    4.1150  O     
36   C         5.2948    7.4511    3.0487  C     
37   C         4.6288    8.8431    2.9626  C     
38   C         5.2212    8.3640    4.3004  C     
39   Cl        0.4377    5.5756    1.5069  Cl    
40   Cl       -1.9065    5.5023    3.6406  Cl    
41   Br        1.7241    8.0307   -5.8420  Br    
42   F        -0.7024    8.6450   -0.4203  F     
43   C         6.9897    5.0400    5.3847  C     
44   C         9.3375    4.9083    4.7506  C     
45   C         8.9199    4.9260    3.2496  C     
46   H         6.6968    5.0757   -3.2070  H     
47   H         5.1060    4.4322   -2.8542  H     
48   H         5.8004    7.4067   -2.6277  H     
49   H         5.1411    6.6477   -4.0670  H     
50   H         3.1473    5.8938   -2.6662  H     
51   H         3.7515    6.9599   -1.3713  H     
52   H         1.8186    8.2918   -0.8764  H     
53   H        -1.9890    8.6034   -2.6504  H     
54   H        -0.9956    8.3121   -4.8386  H     
55   H         6.1078    3.1433    5.9968  H     
56   H         7.3480    3.7068    7.0752  H     
57   H         8.3130    6.6263    5.1122  H     
58   H         8.6124    5.7531    6.5025  H     
59   H         9.7955    3.5501    6.3882  H     
60   H        10.2083    2.9426    4.7925  H     
61   H         8.3167    6.5900    1.0162  H     
62   H         7.6656    6.6772   -1.2571  H     
63   H         5.0279    3.4444   -0.6420  H     
64   H         5.7971    3.2433    1.6111  H     
65   H         3.0865    6.8864    1.9309  H     
66   H         3.1777    5.1592    2.0365  H     
67   H        -0.8246    6.0286    6.1267  H     
68   H         1.4278    6.3736    6.9035  H     
69   H         3.2431    6.2834    5.3991  H     
70   H         6.6749    0.0709    4.0447  H     
71   H         5.8931    1.6448    4.1879  H     
72   H         6.3035    0.7194    5.6592  H     
73   H         6.2929    7.4321    2.5867  H     
74   H         5.2137    9.6465    2.5026  H     
75   H         3.5265    8.8990    2.9504  H     
76   H         4.4570    8.1232    5.0525  H     
77   H         6.1554    8.8528    4.5994  H     
78   H         6.2971    5.6349    6.0015  H     
79   H        10.3041    5.4072    4.8820  H     
80   H         9.4110    4.0933    2.7304  H     
81   H         9.3423    5.8478    2.8525  H     
@<TRIPOS>BOND
     1    1    2 1
     2    1   20 2
     3    1   21 1
     4    2    3 1
     5    3    4 1
     6    4    5 1
     7    5    6 1
     8    6    7 2
     9    6   11 1
    10    7    8 1
    11    8    9 2
    12    8   42 1
    13    9   10 1
    14   10   11 2
    15   11   41 1
    16   12   13 1
    17   12   15 1
    18   12   33 am
    19   13   43 1
    20   14   43 1
    21   14   44 1
    22   15   44 1
    23   16   17 2
    24   16   23 1
    25   16   43 1
    26   17   18 1
    27   17   45 1
    28   18   19 2
    29   18   22 1
    30   19   20 1
    31   21   22 2
    32   23   24 2
    33   23   25 am
    34   25   26 1
    35   25   36 1
    36   26   27 1
    37   27   28 2
    38   27   32 1
    39   28   29 1
    40   28   39 1
    41   29   30 2
    42   29   40 1
    43   30   31 1
    44   31   32 2
    45   33   34 1
    46   33   35 2
    47   36   37 1
    48   36   38 1
    49   37   38 1
    50   44   45 1
    51    2   46 1
    52    2   47 1
    53    3   48 1
    54    3   49 1
    55    4   50 1
    56    4   51 1
    57    7   52 1
    58    9   53 1
    59   10   54 1
    60   13   55 1
    61   13   56 1
    62   14   57 1
    63   14   58 1
    64   15   59 1
    65   15   60 1
    66   19   61 1
    67   20   62 1
    68   21   63 1
    69   22   64 1
    70   26   65 1
    71   26   66 1
    72   30   67 1
    73   31   68 1
    74   32   69 1
    75   34   70 1
    76   34   71 1
    77   34   72 1
    78   36   73 1
    79   37   74 1
    80   37   75 1
    81   38   76 1
    82   38   77 1
    83   43   78 1
    84   44   79 1
    85   45   80 1
    86   45   81 1
@<TRIPOS>PROPERTY_DATA
  Total_Score	| 12.9513
  Crash		| -2.9519
  Polar		| 3.8049
  FragIndex	| 1
  FragRMSD	| 1.316

