@<TRIPOS>MOLECULE
BindingDB_50259444
 81 86 0 0 0
SMALL
NO_CHARGES


@<TRIPOS>ATOM
1    C         6.2869    5.0347   -1.0704  C     
2    C         5.6691    5.2400   -2.4106  C     
3    C         5.0365    6.6752   -2.5597  C     
4    C         3.5843    6.6835   -3.1109  C     
5    O         3.0979    8.0460   -3.1512  O     
6    C         1.7377    8.1928   -3.0267  C     
7    C         1.1997    8.6043   -1.7879  C     
8    C        -0.1928    8.7077   -1.6206  C     
9    C        -1.0524    8.4401   -2.6973  C     
10   C        -0.5285    8.0370   -3.9389  C     
11   C         0.8702    7.9334   -4.1120  C     
12   N         7.9447    2.8207    5.3867  N     
13   C         7.0896    3.7617    6.1066  C     
14   N         8.6021    5.5958    5.5302  N     
15   C         9.3460    3.2186    5.3244  C     
16   C         6.7222    5.1427    4.0041  C     
17   C         7.6123    4.9335    2.9832  C     
18   C         7.2298    4.9126    1.6235  C     
19   C         6.2617    3.9951    1.1421  C     
20   C         5.7822    4.0695   -0.1744  C     
21   C         7.3597    5.8544   -0.6500  C     
22   C         7.8127    5.7940    0.6804  C     
23   C         5.3614    5.2604    3.8373  C     
24   O         4.7433    4.1993    3.8730  O     
25   N         4.6897    6.4273    3.9715  N     
26   C         3.2925    6.4537    4.4231  C     
27   C         2.1885    6.1764    3.4429  C     
28   C         0.8756    5.8334    3.8887  C     
29   C        -0.1595    5.5856    2.9438  C     
30   C         0.1172    5.6777    1.5667  C     
31   C         1.4010    6.0313    1.1293  C     
32   C         2.4285    6.2972    2.0536  C     
33   C         7.4405    1.7464    4.7404  C     
34   C         8.2093    0.8493    3.8907  C     
35   O         6.2428    1.4787    4.8166  O     
36   C         5.3724    7.7022    3.8861  C     
37   C         6.0401    8.0481    2.5426  C     
38   C         4.8039    8.8247    2.9951  C     
39   Cl        0.5072    5.7345    5.5515  Cl    
40   Cl       -1.7582    5.2172    3.3875  Cl    
41   F         1.3745    7.5858   -5.2664  F     
42   F         1.9832    8.8620   -0.7752  F     
43   Cl       -1.5912    7.7101   -5.2149  Cl    
44   C         7.1838    5.1640    5.4218  C     
45   C         9.4718    4.6739    4.7626  C     
46   C         9.0612    4.8207    3.2660  C     
47   H         6.4365    5.0728   -3.1803  H     
48   H         4.8967    4.4770   -2.5795  H     
49   H         5.0225    7.1776   -1.5801  H     
50   H         5.6788    7.2790   -3.2196  H     
51   H         3.5928    6.2863   -4.1312  H     
52   H         2.9699    6.0277   -2.4821  H     
53   H        -0.5838    9.0104   -0.7246  H     
54   H        -2.0630    8.5160   -2.5703  H     
55   H         6.0391    3.4593    6.1685  H     
56   H         7.4451    3.8276    7.1437  H     
57   H         8.7040    6.5435    5.1510  H     
58   H         8.8944    5.6091    6.5165  H     
59   H         9.7492    3.1941    6.3413  H     
60   H         9.9752    2.5575    4.7214  H     
61   H         5.8704    3.2832    1.7542  H     
62   H         5.0350    3.4373   -0.4587  H     
63   H         7.7391    6.5706   -1.2744  H     
64   H         8.5241    6.4675    0.9564  H     
65   H         3.2052    5.7329    5.2408  H     
66   H         3.0522    7.4317    4.8599  H     
67   H        -0.6100    5.4732    0.8716  H     
68   H         1.5816    6.1320    0.1373  H     
69   H         3.3429    6.5818    1.6902  H     
70   H         8.6425    1.4109    3.0598  H     
71   H         7.5972    0.0471    3.4660  H     
72   H         9.0119    0.3854    4.4678  H     
73   H         5.9418    8.0476    4.7579  H     
74   H         6.9709    8.6076    2.5838  H     
75   H         5.8685    7.3605    1.7158  H     
76   H         3.8978    8.5977    2.4457  H     
77   H         4.9785    9.8377    3.3326  H     
78   H         6.6135    5.8802    6.0237  H     
79   H        10.5134    4.9968    4.8824  H     
80   H         9.4830    3.9862    2.7051  H     
81   H         9.5408    5.7348    2.9145  H     
@<TRIPOS>BOND
     1    1    2 1
     2    1   20 2
     3    1   21 1
     4    2    3 1
     5    3    4 1
     6    4    5 1
     7    5    6 1
     8    6    7 2
     9    6   11 1
    10    7    8 1
    11    7   42 1
    12    8    9 2
    13    9   10 1
    14   10   11 2
    15   10   43 1
    16   11   41 1
    17   12   13 1
    18   12   15 1
    19   12   33 am
    20   13   44 1
    21   14   44 1
    22   14   45 1
    23   15   45 1
    24   16   17 2
    25   16   23 1
    26   16   44 1
    27   17   18 1
    28   17   46 1
    29   18   19 2
    30   18   22 1
    31   19   20 1
    32   21   22 2
    33   23   24 2
    34   23   25 am
    35   25   26 1
    36   25   36 1
    37   26   27 1
    38   27   28 2
    39   27   32 1
    40   28   29 1
    41   28   39 1
    42   29   30 2
    43   29   40 1
    44   30   31 1
    45   31   32 2
    46   33   34 1
    47   33   35 2
    48   36   37 1
    49   36   38 1
    50   37   38 1
    51   45   46 1
    52    2   47 1
    53    2   48 1
    54    3   49 1
    55    3   50 1
    56    4   51 1
    57    4   52 1
    58    8   53 1
    59    9   54 1
    60   13   55 1
    61   13   56 1
    62   14   57 1
    63   14   58 1
    64   15   59 1
    65   15   60 1
    66   19   61 1
    67   20   62 1
    68   21   63 1
    69   22   64 1
    70   26   65 1
    71   26   66 1
    72   30   67 1
    73   31   68 1
    74   32   69 1
    75   34   70 1
    76   34   71 1
    77   34   72 1
    78   36   73 1
    79   37   74 1
    80   37   75 1
    81   38   76 1
    82   38   77 1
    83   44   78 1
    84   45   79 1
    85   46   80 1
    86   46   81 1
@<TRIPOS>PROPERTY_DATA
  Total_Score	| 13.3144
  Crash		| -3.0402
  Polar		| 4.5557
  FragIndex	| 1
  FragRMSD	| 1.406

