@<TRIPOS>MOLECULE
BindingDB_50259445
 81 86 0 0 0
SMALL
NO_CHARGES


@<TRIPOS>ATOM
1    C         6.3348    5.1508   -1.1678  C     
2    C         5.9509    5.2618   -2.6027  C     
3    C         5.2524    6.5971   -2.9909  C     
4    C         3.8288    6.7425   -2.4006  C     
5    O         3.1742    7.8638   -3.0306  O     
6    C         1.8159    7.9661   -2.8366  C     
7    C         1.2677    8.0377   -1.5346  C     
8    C        -0.1232    8.1672   -1.3513  C     
9    C        -0.9753    8.2490   -2.4652  C     
10   C        -0.4400    8.2182   -3.7676  C     
11   C         0.9566    8.0885   -3.9580  C     
12   N         7.9817    2.8356    5.4307  N     
13   C         7.0205    3.7147    6.0845  C     
14   N         8.4155    5.6565    5.5251  N     
15   C         9.3366    3.3754    5.3682  C     
16   C         6.5785    5.0877    3.9925  C     
17   C         7.4827    4.9566    2.9693  C     
18   C         7.1209    4.9823    1.5984  C     
19   C         7.7016    5.9311    0.7167  C     
20   C         7.3362    5.9915   -0.6385  C     
21   C         5.7581    4.1916   -0.3004  C     
22   C         6.1552    4.0979    1.0511  C     
23   C         5.2242    5.1619    3.7722  C     
24   O         4.6386    4.1070    3.9888  O     
25   N         4.5718    6.2132    3.2297  N     
26   C         3.2365    6.0333    2.6683  C     
27   C         2.0681    6.0136    3.6097  C     
28   C         0.7378    5.7929    3.1401  C     
29   C        -0.3531    5.8199    4.0446  C     
30   C        -0.1310    6.0501    5.4124  C     
31   C         1.1720    6.2253    5.8928  C     
32   C         2.2557    6.2056    5.0012  C     
33   C         7.6695    1.6333    4.8931  C     
34   C         6.3608    0.9927    4.9804  C     
35   O         8.5293    0.9787    4.2980  O     
36   C         5.2525    7.4941    3.0914  C     
37   C         4.5381    8.8640    3.0089  C     
38   C         5.2053    8.4307    4.3230  C     
39   Cl        0.4368    5.4939    1.4898  Cl    
40   Cl       -1.9610    5.5763    3.5622  Cl    
41   F        -1.2541    8.3231   -4.7786  F     
42   F         2.0404    7.9996   -0.4868  F     
43   Cl        1.5965    8.1161   -5.5317  Cl    
44   C         7.0300    5.1261    5.4044  C     
45   C         9.3490    4.8072    4.7567  C     
46   C         8.9342    4.8714    3.2575  C     
47   H         6.8611    5.1682   -3.2008  H     
48   H         5.3039    4.4320   -2.8957  H     
49   H         5.8611    7.4547   -2.6848  H     
50   H         5.1718    6.6358   -4.0787  H     
51   H         3.2788    5.8181   -2.5711  H     
52   H         3.9094    6.9140   -1.3219  H     
53   H        -0.5147    8.2090   -0.4086  H     
54   H        -1.9864    8.3512   -2.3217  H     
55   H         5.9965    3.3325    6.0911  H     
56   H         7.3141    3.8230    7.1280  H     
57   H         8.4528    6.6021    5.1379  H     
58   H         8.7028    5.7020    6.5081  H     
59   H         9.7251    3.4210    6.3853  H     
60   H        10.0413    2.7544    4.7952  H     
61   H         8.3897    6.6010    1.0607  H     
62   H         7.8083    6.6704   -1.2346  H     
63   H         5.0427    3.5518   -0.6498  H     
64   H         5.7379    3.3686    1.6397  H     
65   H         3.0575    6.7937    1.9191  H     
66   H         3.2177    5.1009    2.1007  H     
67   H        -0.9120    6.0653    6.0736  H     
68   H         1.3341    6.3589    6.8950  H     
69   H         3.1895    6.3400    5.3972  H     
70   H         6.0867    0.8597    6.0301  H     
71   H         6.3505    0.0096    4.4991  H     
72   H         5.6111    1.6141    4.4860  H     
73   H         6.2169    7.5166    2.5693  H     
74   H         5.0701    9.6705    2.4975  H     
75   H         3.4478    8.9128    3.0750  H     
76   H         4.4761    8.2494    5.1114  H     
77   H         6.0977    9.0129    4.5532  H     
78   H         6.3927    5.7934    5.9907  H     
79   H        10.3589    5.2164    4.8722  H     
80   H         9.3473    3.9996    2.7388  H     
81   H         9.4181    5.7538    2.8467  H     
@<TRIPOS>BOND
     1    1    2 1
     2    1   20 2
     3    1   21 1
     4    2    3 1
     5    3    4 1
     6    4    5 1
     7    5    6 1
     8    6    7 2
     9    6   11 1
    10    7    8 1
    11    7   42 1
    12    8    9 2
    13    9   10 1
    14   10   11 2
    15   10   41 1
    16   11   43 1
    17   12   13 1
    18   12   15 1
    19   12   33 am
    20   13   44 1
    21   14   44 1
    22   14   45 1
    23   15   45 1
    24   16   17 2
    25   16   23 1
    26   16   44 1
    27   17   18 1
    28   17   46 1
    29   18   19 2
    30   18   22 1
    31   19   20 1
    32   21   22 2
    33   23   24 2
    34   23   25 am
    35   25   26 1
    36   25   36 1
    37   26   27 1
    38   27   28 2
    39   27   32 1
    40   28   29 1
    41   28   39 1
    42   29   30 2
    43   29   40 1
    44   30   31 1
    45   31   32 2
    46   33   34 1
    47   33   35 2
    48   36   37 1
    49   36   38 1
    50   37   38 1
    51   45   46 1
    52    2   47 1
    53    2   48 1
    54    3   49 1
    55    3   50 1
    56    4   51 1
    57    4   52 1
    58    8   53 1
    59    9   54 1
    60   13   55 1
    61   13   56 1
    62   14   57 1
    63   14   58 1
    64   15   59 1
    65   15   60 1
    66   19   61 1
    67   20   62 1
    68   21   63 1
    69   22   64 1
    70   26   65 1
    71   26   66 1
    72   30   67 1
    73   31   68 1
    74   32   69 1
    75   34   70 1
    76   34   71 1
    77   34   72 1
    78   36   73 1
    79   37   74 1
    80   37   75 1
    81   38   76 1
    82   38   77 1
    83   44   78 1
    84   45   79 1
    85   46   80 1
    86   46   81 1
@<TRIPOS>PROPERTY_DATA
  Total_Score	| 13.6259
  Crash		| -2.2970
  Polar		| 4.1817
  FragIndex	| 1
  FragRMSD	| 0.808

