@<TRIPOS>MOLECULE
BindingDB_50311803
 77 82 0 0 0
SMALL
NO_CHARGES


@<TRIPOS>ATOM
1    N         7.7242    3.7402    4.4800  N     
2    C         6.9136    5.0033    4.4611  C     
3    C         9.0347    4.0801    3.9120  C     
4    C         7.2600    5.4831    5.8986  C     
5    C         9.6567    5.1568    4.8910  C     
6    C         8.7240    4.4575    2.4031  C     
7    C         7.2906    4.7667    2.0742  C     
8    C         6.3849    4.9267    3.0995  C     
9    C         6.9502    4.9268    0.7256  C     
10   C         7.6158    5.8951   -0.0632  C     
11   C         7.2528    6.1063   -1.4054  C     
12   C         6.2052    5.3666   -1.9917  C     
13   C         5.5508    4.3879   -1.2155  C     
14   C         5.9330    4.1551    0.1173  C     
15   C         5.7809    5.6148   -3.3946  C     
16   C         4.2896    6.0299   -3.5477  C     
17   C         3.9080    7.2706   -2.6953  C     
18   O         3.0596    8.2385   -3.3511  O     
19   C         1.7057    8.2248   -3.1051  C     
20   C         1.1927    8.4580   -1.8056  C     
21   C        -0.1941    8.5585   -1.5928  C     
22   C        -1.0844    8.4375   -2.6758  C     
23   C        -0.5859    8.2460   -3.9786  C     
24   C         0.8071    8.1533   -4.1999  C     
25   Cl        1.3976    7.9905   -5.7824  Cl    
26   F         1.9940    8.6263   -0.7887  F     
27   F        -1.4385    8.1904   -4.9669  F     
28   C         5.0384    5.0561    2.9540  C     
29   C        -0.4124    5.4895    4.1021  C     
30   C        -0.0318    5.4835    5.4597  C     
31   C         1.2927    5.7557    5.8230  C     
32   C         2.2493    6.0344    4.8318  C     
33   C         1.9214    5.9867    3.4511  C     
34   C         0.5636    5.7322    3.0955  C     
35   C         2.9584    6.1882    2.3876  C     
36   N         4.3632    6.2116    2.7679  N     
37   O         4.4650    3.9752    2.9092  O     
38   C         5.0725    7.4795    2.7523  C     
39   C         4.4759    8.8686    3.0643  C     
40   C         5.2619    8.1260    4.1384  C     
41   Cl        0.0803    5.6893    1.4612  Cl    
42   Cl       -2.0525    5.2005    3.7556  Cl    
43   N         8.7652    5.5548    6.0502  N     
44   H         7.8445    3.3779    5.4290  H     
45   H         7.2741    3.0144    3.9162  H     
46   H         7.3807    5.9492    4.1363  H     
47   H         9.6594    3.1853    3.9388  H     
48   H         6.8228    6.4579    6.1323  H     
49   H         6.8573    4.7811    6.6327  H     
50   H        10.5963    4.7846    5.3062  H     
51   H         9.8979    6.0584    4.3274  H     
52   H         9.3593    5.2939    2.1179  H     
53   H         9.0238    3.6025    1.7886  H     
54   H         8.3524    6.4782    0.3366  H     
55   H         7.7486    6.8183   -1.9446  H     
56   H         4.8045    3.8229   -1.6235  H     
57   H         5.4596    3.4091    0.6322  H     
58   H         6.3909    6.3994   -3.8499  H     
59   H         5.9698    4.7044   -3.9664  H     
60   H         4.1072    6.2566   -4.6031  H     
61   H         3.6402    5.1908   -3.2762  H     
62   H         3.4732    6.9361   -1.7509  H     
63   H         4.8188    7.8132   -2.4442  H     
64   H        -0.5614    8.7307   -0.6542  H     
65   H        -2.0913    8.5189   -2.5158  H     
66   H        -0.7201    5.2945    6.1925  H     
67   H         1.5619    5.7516    6.8121  H     
68   H         3.2004    6.2350    5.1430  H     
69   H         2.8420    5.3838    1.6529  H     
70   H         2.6882    7.0927    1.8567  H     
71   H         5.9723    7.5264    2.1355  H     
72   H         5.0003    9.7271    2.6449  H     
73   H         3.4090    8.9581    3.2652  H     
74   H         4.6495    7.7549    4.9613  H     
75   H         6.2510    8.5365    4.3494  H     
76   H         9.0018    6.5091    6.3371  H     
77   H         9.0123    4.9465    6.8282  H     
@<TRIPOS>BOND
     1    1    2 1
     2    1    3 1
     3    2    4 1
     4    2    8 1
     5    3    5 1
     6    3    6 1
     7    4   43 1
     8    5   43 1
     9    6    7 1
    10    7    8 2
    11    7    9 1
    12    8   28 1
    13    9   10 2
    14    9   14 1
    15   10   11 1
    16   11   12 2
    17   12   13 1
    18   12   15 1
    19   13   14 2
    20   15   16 1
    21   16   17 1
    22   17   18 1
    23   18   19 1
    24   19   20 2
    25   19   24 1
    26   20   21 1
    27   20   26 1
    28   21   22 2
    29   22   23 1
    30   23   24 2
    31   23   27 1
    32   24   25 1
    33   28   36 am
    34   28   37 2
    35   29   30 2
    36   29   34 1
    37   29   42 1
    38   30   31 1
    39   31   32 2
    40   32   33 1
    41   33   34 2
    42   33   35 1
    43   34   41 1
    44   35   36 1
    45   36   38 1
    46   38   39 1
    47   38   40 1
    48   39   40 1
    49    1   44 1
    50    1   45 1
    51    2   46 1
    52    3   47 1
    53    4   48 1
    54    4   49 1
    55    5   50 1
    56    5   51 1
    57    6   52 1
    58    6   53 1
    59   10   54 1
    60   11   55 1
    61   13   56 1
    62   14   57 1
    63   15   58 1
    64   15   59 1
    65   16   60 1
    66   16   61 1
    67   17   62 1
    68   17   63 1
    69   21   64 1
    70   22   65 1
    71   30   66 1
    72   31   67 1
    73   32   68 1
    74   35   69 1
    75   35   70 1
    76   38   71 1
    77   39   72 1
    78   39   73 1
    79   40   74 1
    80   40   75 1
    81   43   76 1
    82   43   77 1
@<TRIPOS>PROPERTY_DATA
  Total_Score	| 13.4225
  Crash		| -3.0131
  Polar		| 3.2509
  FragIndex	| 1
  FragRMSD	| 0.546

