@<TRIPOS>MOLECULE
BindingDB_50259435
 81 86 0 0 0
SMALL
NO_CHARGES


@<TRIPOS>ATOM
1    C         6.2379    5.1900   -1.0393  C     
2    C         5.8420    5.3143   -2.4730  C     
3    C         5.1452    6.6457   -2.8803  C     
4    C         3.6915    6.8209   -2.3755  C     
5    O         3.1426    7.9920   -3.0155  O     
6    C         1.7911    8.1608   -2.8779  C     
7    C         1.2310    8.6800   -1.6921  C     
8    C        -0.1596    8.8842   -1.5942  C     
9    C        -0.9951    8.5881   -2.6859  C     
10   C        -0.4390    8.0936   -3.8798  C     
11   C         0.9510    7.8938   -3.9777  C     
12   N         7.6888    2.9433    5.7320  N     
13   C         6.9226    4.0300    6.3296  C     
14   N         8.5521    5.6445    5.5036  N     
15   C         9.1058    3.2357    5.5634  C     
16   C         6.6019    5.1965    4.0830  C     
17   C         7.4557    4.9036    3.0573  C     
18   C         7.0766    4.9417    1.6952  C     
19   C         7.6437    5.9128    0.8351  C     
20   C         7.2525    6.0166   -0.5099  C     
21   C         5.6805    4.2021   -0.1931  C     
22   C         6.1073    4.0667    1.1440  C     
23   C         5.2415    5.1863    3.8984  C     
24   O         4.7615    4.0778    4.0900  O     
25   N         4.4918    6.1780    3.3669  N     
26   C         3.2327    5.8982    2.6728  C     
27   C         1.9979    5.9842    3.5192  C     
28   C         0.6765    5.6668    3.0769  C     
29   C        -0.4146    5.7486    3.9871  C     
30   C        -0.2006    6.1162    5.3272  C     
31   C         1.0949    6.3902    5.7792  C     
32   C         2.1717    6.3104    4.8838  C     
33   C         7.1137    1.7874    5.3476  C     
34   C         7.8159    0.6722    4.7276  C     
35   O         5.9133    1.6073    5.5167  O     
36   C         5.0511    7.5043    3.1878  C     
37   C         4.0989    8.7163    3.1588  C     
38   C         5.0369    8.5149    4.3483  C     
39   Cl        0.3817    5.1104    1.4951  Cl    
40   Cl       -2.0227    5.4211    3.5543  Cl    
41   C         7.1004    5.3240    5.4762  C     
42   C         9.3192    4.5864    4.8185  C     
43   C         8.8771    4.5954    3.3239  C     
44   H         6.7548    5.2232   -3.0672  H     
45   H         5.1936    4.4859   -2.7701  H     
46   H         5.7401    7.4982   -2.5427  H     
47   H         5.1255    6.6870   -3.9737  H     
48   H         3.1177    5.9222   -2.6244  H     
49   H         3.6899    6.9568   -1.2902  H     
50   H         1.8351    8.9084   -0.9010  H     
51   H        -0.5671    9.2482   -0.7300  H     
52   H        -2.0055    8.7375   -2.6145  H     
53   H        -1.0428    7.8883   -4.6782  H     
54   H         1.3514    7.5539   -4.8554  H     
55   H         5.8591    3.8187    6.4521  H     
56   H         7.3030    4.2131    7.3388  H     
57   H         8.7290    6.5223    5.0160  H     
58   H         8.8847    5.7434    6.4688  H     
59   H         9.5553    3.3124    6.5570  H     
60   H         9.6678    2.4668    5.0345  H     
61   H         8.3290    6.5820    1.1883  H     
62   H         7.7116    6.7120   -1.0999  H     
63   H         4.9682    3.5605   -0.5496  H     
64   H         5.6968    3.3239    1.7149  H     
65   H         3.1641    6.5655    1.8145  H     
66   H         3.2479    4.9039    2.2175  H     
67   H        -0.9812    6.1713    5.9874  H     
68   H         1.2550    6.6273    6.7601  H     
69   H         3.1063    6.4671    5.2489  H     
70   H         8.2701    0.9911    3.7852  H     
71   H         7.1492   -0.1672    4.5117  H     
72   H         8.5953    0.3088    5.4015  H     
73   H         5.8927    7.6101    2.5030  H     
74   H         4.3729    9.5358    2.4906  H     
75   H         3.0489    8.5570    3.4039  H     
76   H         4.5347    8.2106    5.2622  H     
77   H         5.8784    9.2091    4.4037  H     
78   H         6.5884    6.1465    5.9805  H     
79   H        10.3810    4.8423    4.8774  H     
80   H         9.1249    3.6298    2.8781  H     
81   H         9.4940    5.3436    2.8286  H     
@<TRIPOS>BOND
     1    1    2 1
     2    1   20 2
     3    1   21 1
     4    2    3 1
     5    3    4 1
     6    4    5 1
     7    5    6 1
     8    6    7 2
     9    6   11 1
    10    7    8 1
    11    8    9 2
    12    9   10 1
    13   10   11 2
    14   12   13 1
    15   12   15 1
    16   12   33 am
    17   13   41 1
    18   14   41 1
    19   14   42 1
    20   15   42 1
    21   16   17 2
    22   16   23 1
    23   16   41 1
    24   17   18 1
    25   17   43 1
    26   18   19 2
    27   18   22 1
    28   19   20 1
    29   21   22 2
    30   23   24 2
    31   23   25 am
    32   25   26 1
    33   25   36 1
    34   26   27 1
    35   27   28 2
    36   27   32 1
    37   28   29 1
    38   28   39 1
    39   29   30 2
    40   29   40 1
    41   30   31 1
    42   31   32 2
    43   33   34 1
    44   33   35 2
    45   36   37 1
    46   36   38 1
    47   37   38 1
    48   42   43 1
    49    2   44 1
    50    2   45 1
    51    3   46 1
    52    3   47 1
    53    4   48 1
    54    4   49 1
    55    7   50 1
    56    8   51 1
    57    9   52 1
    58   10   53 1
    59   11   54 1
    60   13   55 1
    61   13   56 1
    62   14   57 1
    63   14   58 1
    64   15   59 1
    65   15   60 1
    66   19   61 1
    67   20   62 1
    68   21   63 1
    69   22   64 1
    70   26   65 1
    71   26   66 1
    72   30   67 1
    73   31   68 1
    74   32   69 1
    75   34   70 1
    76   34   71 1
    77   34   72 1
    78   36   73 1
    79   37   74 1
    80   37   75 1
    81   38   76 1
    82   38   77 1
    83   41   78 1
    84   42   79 1
    85   43   80 1
    86   43   81 1
@<TRIPOS>PROPERTY_DATA
  Total_Score	| 14.0844
  Crash		| -2.2164
  Polar		| 4.6364
  FragIndex	| 1
  FragRMSD	| 0.868

