@<TRIPOS>MOLECULE
BindingDB_50311799
 74 79 0 0 0
SMALL
NO_CHARGES


@<TRIPOS>ATOM
1    N         7.7425    3.5003    5.2344  N     
2    C         6.8451    4.6701    5.1506  C     
3    C         8.9771    4.0026    4.6041  C     
4    C         7.7565    5.7955    5.7036  C     
5    C         9.1901    5.3425    5.3489  C     
6    C         8.7029    4.1767    3.0703  C     
7    C         7.3471    4.6859    2.7505  C     
8    C         6.4250    4.8755    3.7412  C     
9    C         7.0437    4.8009    1.3883  C     
10   C         6.0760    3.9685    0.7677  C     
11   C         5.7033    4.1745   -0.5736  C     
12   C         6.2731    5.2252   -1.3338  C     
13   C         7.3108    5.9853   -0.7486  C     
14   C         7.6873    5.7744    0.5909  C     
15   C         5.7604    5.5651   -2.6946  C     
16   C         5.0475    6.9524   -2.7287  C     
17   C         3.5887    6.9028   -3.2613  C     
18   O         3.0237    8.2322   -3.3277  O     
19   C         1.6545    8.3323   -3.1827  C     
20   C         1.0968    8.6759   -1.9277  C     
21   C        -0.3007    8.8094   -1.7768  C     
22   C        -1.1554    8.6047   -2.8772  C     
23   C        -0.6182    8.2914   -4.1410  C     
24   C         0.7877    8.1566   -4.2963  C     
25   Cl        1.4259    7.8287   -5.8415  Cl    
26   F         1.8674    8.9108   -0.9011  F     
27   F        -1.4427    8.1180   -5.1514  F     
28   C         5.0837    5.0167    3.4716  C     
29   C        -0.4386    5.7477    3.9528  C     
30   C        -0.1969    6.0605    5.3059  C     
31   C         1.1131    6.3070    5.7460  C     
32   C         2.1832    6.2762    4.8326  C     
33   C         1.9672    5.9870    3.4581  C     
34   C         0.6366    5.6963    3.0232  C     
35   C         3.1041    6.0312    2.4813  C     
36   N         4.4593    6.1243    3.0221  N     
37   O         4.4465    3.9793    3.6304  O     
38   C         5.1375    7.4077    2.9138  C     
39   C         4.3531    8.7336    3.1129  C     
40   C         5.2802    8.2359    4.2080  C     
41   Cl        0.3122    5.3132    1.3864  Cl    
42   Cl       -2.0543    5.4743    3.5049  Cl    
43   H         7.9197    3.2665    6.2198  H     
44   H         7.3654    2.6957    4.7199  H     
45   H         5.9975    4.5167    5.8261  H     
46   H         9.8177    3.3192    4.7671  H     
47   H         7.5308    6.7660    5.2665  H     
48   H         7.6325    5.8623    6.7906  H     
49   H         9.7683    5.1718    6.2626  H     
50   H         9.7164    6.0791    4.7345  H     
51   H         9.4701    4.8380    2.6479  H     
52   H         8.8215    3.1867    2.6034  H     
53   H         5.6228    3.2185    1.2987  H     
54   H         4.9589    3.5883   -0.9681  H     
55   H         7.7692    6.7230   -1.2879  H     
56   H         8.3822    6.4015    1.0029  H     
57   H         6.5827    5.5595   -3.4115  H     
58   H         5.0567    4.8022   -3.0299  H     
59   H         5.0546    7.3776   -1.7167  H     
60   H         5.6302    7.6248   -3.3729  H     
61   H         3.6229    6.5214   -4.2845  H     
62   H         3.0047    6.2024   -2.6575  H     
63   H        -0.7025    9.0529   -0.8702  H     
64   H        -2.1665    8.7061   -2.7635  H     
65   H        -0.9635    6.0910    5.9844  H     
66   H         1.2941    6.5298    6.7295  H     
67   H         3.1222    6.4893    5.1950  H     
68   H         3.0451    5.1471    1.8397  H     
69   H         2.9157    6.8833    1.8237  H     
70   H         6.0050    7.4792    2.2377  H     
71   H         4.7308    9.6003    2.5625  H     
72   H         3.2897    8.6799    3.3743  H     
73   H         4.7808    7.8367    5.0985  H     
74   H         6.2191    8.7844    4.2941  H     
@<TRIPOS>BOND
     1    1    2 1
     2    1    3 1
     3    2    4 1
     4    2    8 1
     5    3    5 1
     6    3    6 1
     7    4    5 1
     8    6    7 1
     9    7    8 2
    10    7    9 1
    11    8   28 1
    12    9   10 2
    13    9   14 1
    14   10   11 1
    15   11   12 2
    16   12   13 1
    17   12   15 1
    18   13   14 2
    19   15   16 1
    20   16   17 1
    21   17   18 1
    22   18   19 1
    23   19   20 2
    24   19   24 1
    25   20   21 1
    26   20   26 1
    27   21   22 2
    28   22   23 1
    29   23   24 2
    30   23   27 1
    31   24   25 1
    32   28   36 am
    33   28   37 2
    34   29   30 2
    35   29   34 1
    36   29   42 1
    37   30   31 1
    38   31   32 2
    39   32   33 1
    40   33   34 2
    41   33   35 1
    42   34   41 1
    43   35   36 1
    44   36   38 1
    45   38   39 1
    46   38   40 1
    47   39   40 1
    48    1   43 1
    49    1   44 1
    50    2   45 1
    51    3   46 1
    52    4   47 1
    53    4   48 1
    54    5   49 1
    55    5   50 1
    56    6   51 1
    57    6   52 1
    58   10   53 1
    59   11   54 1
    60   13   55 1
    61   14   56 1
    62   15   57 1
    63   15   58 1
    64   16   59 1
    65   16   60 1
    66   17   61 1
    67   17   62 1
    68   21   63 1
    69   22   64 1
    70   30   65 1
    71   31   66 1
    72   32   67 1
    73   35   68 1
    74   35   69 1
    75   38   70 1
    76   39   71 1
    77   39   72 1
    78   40   73 1
    79   40   74 1
@<TRIPOS>PROPERTY_DATA
  Total_Score	| 11.5753
  Crash		| -2.3910
  Polar		| 0.0012
  FragIndex	| 1
  FragRMSD	| 0.110

