@<TRIPOS>MOLECULE
BindingDB_50259459
 88 93 0 0 0
SMALL
NO_CHARGES


@<TRIPOS>ATOM
1    C         6.0808    5.1089   -0.9610  C     
2    C         5.6073    5.1806   -2.3752  C     
3    C         5.0372    6.5596   -2.8248  C     
4    C         3.5552    6.7890   -2.4283  C     
5    O         3.0055    7.8772   -3.2041  O     
6    C         1.6601    8.0905   -3.0340  C     
7    C         1.1337    8.5219   -1.7953  C     
8    C        -0.2500    8.7628   -1.6500  C     
9    C        -1.1123    8.5928   -2.7491  C     
10   C        -0.5920    8.2042   -3.9981  C     
11   C         0.7939    7.9631   -4.1387  C     
12   C         9.5236    4.7692    4.7366  C     
13   N         8.1888    2.8131    5.4628  N     
14   C         7.2536    3.6878    6.1641  C     
15   C         7.2576    5.1154    5.5266  C     
16   N         8.6447    5.6439    5.5331  N     
17   C         9.5388    3.3519    5.3787  C     
18   C         6.7126    5.1087    4.1476  C     
19   C         7.5380    4.9357    3.0718  C     
20   C         7.0768    4.9601    1.7316  C     
21   C         6.0370    4.1099    1.2839  C     
22   C         5.5438    4.1827   -0.0335  C     
23   C         7.1619    5.9158   -0.5448  C     
24   C         7.6389    5.8448    0.7738  C     
25   C         5.3479    5.2657    4.0503  C     
26   O         4.7174    4.2284    4.2281  O     
27   N         4.7077    6.4556    4.0300  N     
28   C         3.3133    6.5769    4.4054  C     
29   C         2.3453    6.0511    3.4008  C     
30   C         1.2745    5.1639    3.7304  C     
31   C         0.3653    4.7458    2.7388  C     
32   C         0.5149    5.1819    1.4092  C     
33   C         1.5711    6.0382    1.0688  C     
34   C         2.4758    6.4596    2.0527  C     
35   C         7.8574    1.6344    4.8858  C     
36   C         6.5825    0.9200    5.0243  C     
37   O         8.6402    1.1356    4.0806  O     
38   C         5.4597    7.6819    3.8468  C     
39   C         5.9925    7.9305    2.4215  C     
40   C         4.9230    8.8503    2.9913  C     
41   C         6.6207   -0.6269    4.8171  C     
42   C         6.9814   -1.0721    3.4755  C     
43   O         6.1303   -1.3041    2.6257  O     
44   N         8.2473   -1.2605    3.1406  N     
45   C         9.0028    4.8086    3.2620  C     
46   Cl        1.0162    4.5495    5.2890  Cl    
47   F         1.2735    7.6239   -5.3073  F     
48   F        -1.4008    8.0864   -5.0146  F     
49   F         1.9241    8.7009   -0.7731  F     
50   H         6.4563    4.9330   -3.0237  H     
51   H         4.8413    4.4169   -2.5632  H     
52   H         5.6510    7.3716   -2.4245  H     
53   H         5.0979    6.6141   -3.9192  H     
54   H         2.9952    5.8613   -2.6041  H     
55   H         3.5042    7.0354   -1.3650  H     
56   H        -0.6339    9.0710   -0.7517  H     
57   H        -2.1154    8.7608   -2.6385  H     
58   H        10.5373    5.1716    4.7769  H     
59   H         6.2205    3.3390    6.1767  H     
60   H         7.5681    3.7719    7.2089  H     
61   H         6.6803    5.7835    6.1745  H     
62   H         8.9886    5.7153    6.4967  H     
63   H         8.6616    6.5789    5.1230  H     
64   H        10.2430    2.7335    4.8251  H     
65   H         9.9415    3.4287    6.3934  H     
66   H         5.6411    3.4133    1.9174  H     
67   H         4.7907    3.5573   -0.3158  H     
68   H         7.6084    6.5657   -1.1972  H     
69   H         8.3981    6.4798    1.0352  H     
70   H         3.2107    6.0720    5.3601  H     
71   H         3.0300    7.6152    4.5980  H     
72   H        -0.4023    4.1141    2.9734  H     
73   H        -0.1492    4.8708    0.6946  H     
74   H         1.6873    6.3465    0.1043  H     
75   H         3.2347    7.0842    1.7697  H     
76   H         6.1910    1.0448    6.0342  H     
77   H         5.8599    1.3613    4.3365  H     
78   H         6.1797    7.9690    4.6143  H     
79   H         6.9724    8.4071    2.3239  H     
80   H         5.6489    7.2518    1.6419  H     
81   H         3.9260    8.7394    2.5655  H     
82   H         5.2711    9.8511    3.2561  H     
83   H         7.3150   -1.0516    5.5488  H     
84   H         5.6284   -1.0388    5.0396  H     
85   H         8.4688   -1.5827    2.2474  H     
86   H         8.9538   -1.0976    3.7870  H     
87   H         9.4812    5.6782    2.8055  H     
88   H         9.3588    3.9156    2.7361  H     
@<TRIPOS>BOND
     1    1    2 1
     2    1   22 2
     3    1   23 1
     4    2    3 1
     5    3    4 1
     6    4    5 1
     7    5    6 1
     8    6    7 2
     9    6   11 1
    10    7    8 1
    11    7   49 1
    12    8    9 2
    13    9   10 1
    14   10   11 2
    15   10   48 1
    16   11   47 1
    17   12   16 1
    18   12   17 1
    19   12   45 1
    20   13   14 1
    21   13   17 1
    22   13   35 am
    23   14   15 1
    24   15   16 1
    25   15   18 1
    26   18   19 2
    27   18   25 1
    28   19   20 1
    29   19   45 1
    30   20   21 2
    31   20   24 1
    32   21   22 1
    33   23   24 2
    34   25   26 2
    35   25   27 am
    36   27   28 1
    37   27   38 1
    38   28   29 1
    39   29   30 2
    40   29   34 1
    41   30   31 1
    42   30   46 1
    43   31   32 2
    44   32   33 1
    45   33   34 2
    46   35   36 1
    47   35   37 2
    48   36   41 1
    49   38   39 1
    50   38   40 1
    51   39   40 1
    52   41   42 1
    53   42   43 2
    54   42   44 am
    55    2   50 1
    56    2   51 1
    57    3   52 1
    58    3   53 1
    59    4   54 1
    60    4   55 1
    61    8   56 1
    62    9   57 1
    63   12   58 1
    64   14   59 1
    65   14   60 1
    66   15   61 1
    67   16   62 1
    68   16   63 1
    69   17   64 1
    70   17   65 1
    71   21   66 1
    72   22   67 1
    73   23   68 1
    74   24   69 1
    75   28   70 1
    76   28   71 1
    77   31   72 1
    78   32   73 1
    79   33   74 1
    80   34   75 1
    81   36   76 1
    82   36   77 1
    83   38   78 1
    84   39   79 1
    85   39   80 1
    86   40   81 1
    87   40   82 1
    88   41   83 1
    89   41   84 1
    90   44   85 1
    91   44   86 1
    92   45   87 1
    93   45   88 1
@<TRIPOS>PROPERTY_DATA
  Total_Score	| 14.4464
  Crash		| -3.1775
  Polar		| 5.7889
  FragIndex	| 1
  FragRMSD	| 1.085

