@<TRIPOS>MOLECULE
BindingDB_50259466
 77 82 0 0 0
SMALL
NO_CHARGES


@<TRIPOS>ATOM
1    C         6.5175    5.2583   -1.4361  C     
2    C         6.2769    5.4916   -2.8844  C     
3    C         5.5024    6.8049   -3.1753  C     
4    C         4.0556    6.7870   -2.6142  C     
5    O         3.3824    8.0140   -2.9688  O     
6    C         2.0236    8.0345   -2.7541  C     
7    C         1.4941    7.8544   -1.4536  C     
8    C         0.1015    7.8067   -1.2616  C     
9    C        -0.7745    7.9627   -2.3504  C     
10   C        -0.2521    8.1751   -3.6476  C     
11   C         1.1465    8.2337   -3.8521  C     
12   N         8.5876    5.9388    5.4530  N     
13   C         7.2354    5.5823    5.9342  C     
14   N         7.5658    3.2682    5.1566  N     
15   C         9.5093    4.7841    5.3301  C     
16   C         6.3095    4.7611    3.6912  C     
17   C         7.2585    4.5943    2.7186  C     
18   C         7.0171    4.8031    1.3463  C     
19   C         7.7458    5.7789    0.6263  C     
20   C         7.5064    5.9989   -0.7430  C     
21   C         5.8178    4.2569   -0.7307  C     
22   C         6.0813    4.0127    0.6288  C     
23   C         4.9857    4.9820    3.3825  C     
24   O         4.3057    3.9630    3.4324  O     
25   N         4.4022    6.1183    2.9436  N     
26   C         3.0240    6.1055    2.4533  C     
27   C         1.9273    6.0262    3.4814  C     
28   C         0.5702    5.7510    3.1045  C     
29   C        -0.4502    5.7486    4.1010  C     
30   C        -0.1320    6.0210    5.4516  C     
31   C         1.1981    6.2884    5.8149  C     
32   C         2.2253    6.2749    4.8510  C     
33   C         5.1431    7.3597    2.8684  C     
34   C         4.4871    8.7459    3.0504  C     
35   C         5.3406    8.1504    4.1731  C     
36   Cl        0.1511    5.4032    1.4770  Cl    
37   Cl       -2.0920    5.4487    3.7409  Cl    
38   Cl        1.7767    8.5004   -5.4117  Cl    
39   F        -1.0990    8.3195   -4.6343  F     
40   F         2.2915    7.6873   -0.4301  F     
41   C         8.8524    3.6294    4.5128  C     
42   C         6.6212    4.4139    5.1042  C     
43   C         8.5752    3.9872    3.0204  C     
44   H         7.2377    5.5250   -3.4042  H     
45   H         5.7259    4.6605   -3.3304  H     
46   H         6.0417    7.6559   -2.7508  H     
47   H         5.4592    6.9568   -4.2589  H     
48   H         3.5323    5.9238   -3.0348  H     
49   H         4.1002    6.6859   -1.5231  H     
50   H        -0.2788    7.6422   -0.3258  H     
51   H        -1.7864    7.9241   -2.1975  H     
52   H         8.5052    6.3735    4.5351  H     
53   H         8.9862    6.6390    6.0803  H     
54   H         7.3035    5.2881    6.9858  H     
55   H         6.5979    6.4635    5.8758  H     
56   H         7.1579    2.4700    4.6615  H     
57   H         7.7315    3.0094    6.1312  H     
58   H        10.4309    5.1139    4.8401  H     
59   H         9.7733    4.4249    6.3271  H     
60   H         8.4558    6.3498    1.0932  H     
61   H         8.0557    6.7079   -1.2331  H     
62   H         5.1167    3.6895   -1.2098  H     
63   H         5.5733    3.2582    1.0927  H     
64   H         2.8313    6.9919    1.8463  H     
65   H         2.9277    5.2533    1.7710  H     
66   H        -0.8628    6.0078    6.1796  H     
67   H         1.4203    6.4963    6.7939  H     
68   H         3.1903    6.4603    5.1623  H     
69   H         5.9975    7.4154    2.2007  H     
70   H         4.9406    9.6074    2.5520  H     
71   H         3.4223    8.8020    3.2877  H     
72   H         4.7233    7.8766    5.0398  H     
73   H         6.3245    8.6115    4.2955  H     
74   H         9.5223    2.7592    4.5657  H     
75   H         5.7279    4.0848    5.6423  H     
76   H         8.6487    3.0516    2.4577  H     
77   H         9.3863    4.6267    2.6618  H     
@<TRIPOS>BOND
     1    1    2 1
     2    1   20 2
     3    1   21 1
     4    2    3 1
     5    3    4 1
     6    4    5 1
     7    5    6 1
     8    6    7 2
     9    6   11 1
    10    7    8 1
    11    7   40 1
    12    8    9 2
    13    9   10 1
    14   10   11 2
    15   10   39 1
    16   11   38 1
    17   12   13 1
    18   12   15 1
    19   13   42 1
    20   14   41 1
    21   14   42 1
    22   15   41 1
    23   16   17 2
    24   16   23 1
    25   16   42 1
    26   17   18 1
    27   17   43 1
    28   18   19 2
    29   18   22 1
    30   19   20 1
    31   21   22 2
    32   23   24 2
    33   23   25 am
    34   25   26 1
    35   25   33 1
    36   26   27 1
    37   27   28 2
    38   27   32 1
    39   28   29 1
    40   28   36 1
    41   29   30 2
    42   29   37 1
    43   30   31 1
    44   31   32 2
    45   33   34 1
    46   33   35 1
    47   34   35 1
    48   41   43 1
    49    2   44 1
    50    2   45 1
    51    3   46 1
    52    3   47 1
    53    4   48 1
    54    4   49 1
    55    8   50 1
    56    9   51 1
    57   12   52 1
    58   12   53 1
    59   13   54 1
    60   13   55 1
    61   14   56 1
    62   14   57 1
    63   15   58 1
    64   15   59 1
    65   19   60 1
    66   20   61 1
    67   21   62 1
    68   22   63 1
    69   26   64 1
    70   26   65 1
    71   30   66 1
    72   31   67 1
    73   32   68 1
    74   33   69 1
    75   34   70 1
    76   34   71 1
    77   35   72 1
    78   35   73 1
    79   41   74 1
    80   42   75 1
    81   43   76 1
    82   43   77 1
@<TRIPOS>PROPERTY_DATA
  Total_Score	| 14.7333
  Crash		| -1.6359
  Polar		| 3.4702
  FragIndex	| 1
  FragRMSD	| 0.143

