@<TRIPOS>MOLECULE
BindingDB_50259442
 81 86 0 0 0
SMALL
NO_CHARGES


@<TRIPOS>ATOM
1    C         6.3802    5.1145   -1.0762  C     
2    C         6.0574    5.2362   -2.5324  C     
3    C         5.3687    6.5766   -2.9438  C     
4    C         3.8670    6.4567   -3.2847  C     
5    O         3.2858    7.7850   -3.2787  O     
6    C         1.9209    7.8522   -3.0889  C     
7    C         1.0740    8.2607   -4.1472  C     
8    C        -0.3133    8.3848   -3.9433  C     
9    C        -0.8687    8.1202   -2.6800  C     
10   C        -0.0409    7.7421   -1.6141  C     
11   C         1.3480    7.6275   -1.8132  C     
12   N         7.8591    2.8816    5.7095  N     
13   C         6.9260    3.8499    6.2682  C     
14   N         8.3885    5.6876    5.5544  N     
15   C         9.2304    3.3601    5.5903  C     
16   C         6.5558    5.0209    4.0600  C     
17   C         7.4674    4.8366    3.0602  C     
18   C         7.1263    4.8844    1.6874  C     
19   C         6.2398    3.9560    1.0897  C     
20   C         5.8624    4.0764   -0.2664  C     
21   C         7.3058    6.0066   -0.4925  C     
22   C         7.6480    5.9127    0.8687  C     
23   C         5.2060    5.0999    3.8033  C     
24   O         4.5758    4.0858    4.0841  O     
25   N         4.5812    6.1337    3.1957  N     
26   C         3.2279    5.9577    2.6598  C     
27   C         2.0728    5.9563    3.6147  C     
28   C         0.7350    5.7451    3.1639  C     
29   C        -0.3453    5.8188    4.0805  C     
30   C        -0.1072    6.0976    5.4389  C     
31   C         1.2064    6.2446    5.8978  C     
32   C         2.2793    6.1843    4.9924  C     
33   C         7.4982    1.6374    5.3286  C     
34   C         6.1612    1.0667    5.4673  C     
35   O         8.3242    0.8740    4.8412  O     
36   C         5.2812    7.4024    3.0147  C     
37   C         4.6735    8.8166    2.9794  C     
38   C         5.2548    8.2702    4.2948  C     
39   Cl        0.4000    5.3862    1.5388  Cl    
40   Cl       -1.9660    5.5541    3.6363  Cl    
41   Cl        2.3180    7.2626   -0.4802  Cl    
42   Cl        1.7007    8.6484   -5.6737  Cl    
43   F        -2.1548    8.2326   -2.4963  F     
44   C         6.9888    5.1872    5.4689  C     
45   C         9.3026    4.7428    4.8800  C     
46   C         8.9106    4.7159    3.3673  C     
47   H         6.9989    5.1621   -3.0803  H     
48   H         5.4333    4.4016   -2.8651  H     
49   H         5.4950    7.3276   -2.1565  H     
50   H         5.8750    6.9668   -3.8354  H     
51   H         3.7599    5.9964   -4.2725  H     
52   H         3.3833    5.8071   -2.5525  H     
53   H        -0.9228    8.6814   -4.7088  H     
54   H        -0.4475    7.5593   -0.6892  H     
55   H         5.8895    3.5136    6.2975  H     
56   H         7.2105    4.0442    7.3075  H     
57   H         8.4605    6.5935    5.0856  H     
58   H         8.6783    5.8124    6.5320  H     
59   H         9.6435    3.4718    6.5989  H     
60   H         9.8978    2.6742    5.0607  H     
61   H         5.8683    3.1740    1.6318  H     
62   H         5.2162    3.3899   -0.6609  H     
63   H         7.7437    6.7389   -1.0568  H     
64   H         8.2769    6.6193    1.2493  H     
65   H         3.0557    6.7424    1.9248  H     
66   H         3.1864    5.0319    2.0702  H     
67   H        -0.8804    6.1730    6.1066  H     
68   H         1.3851    6.4106    6.8918  H     
69   H         3.2177    6.1947    5.3867  H     
70   H         5.8507    1.0831    6.5163  H     
71   H         6.1096    0.0315    5.1222  H     
72   H         5.4470    1.6425    4.8771  H     
73   H         6.2831    7.3764    2.5680  H     
74   H         5.2865    9.5998    2.5218  H     
75   H         3.5911    8.9454    3.0069  H     
76   H         4.5169    8.0251    5.0663  H     
77   H         6.1988    8.7409    4.5884  H     
78   H         6.3601    5.9263    5.9727  H     
79   H        10.3226    5.1249    4.9728  H     
80   H         9.3042    3.7995    2.9170  H     
81   H         9.4375    5.5478    2.9033  H     
@<TRIPOS>BOND
     1    1    2 1
     2    1   20 2
     3    1   21 1
     4    2    3 1
     5    3    4 1
     6    4    5 1
     7    5    6 1
     8    6    7 2
     9    6   11 1
    10    7    8 1
    11    7   42 1
    12    8    9 2
    13    9   10 1
    14    9   43 1
    15   10   11 2
    16   11   41 1
    17   12   13 1
    18   12   15 1
    19   12   33 am
    20   13   44 1
    21   14   44 1
    22   14   45 1
    23   15   45 1
    24   16   17 2
    25   16   23 1
    26   16   44 1
    27   17   18 1
    28   17   46 1
    29   18   19 2
    30   18   22 1
    31   19   20 1
    32   21   22 2
    33   23   24 2
    34   23   25 am
    35   25   26 1
    36   25   36 1
    37   26   27 1
    38   27   28 2
    39   27   32 1
    40   28   29 1
    41   28   39 1
    42   29   30 2
    43   29   40 1
    44   30   31 1
    45   31   32 2
    46   33   34 1
    47   33   35 2
    48   36   37 1
    49   36   38 1
    50   37   38 1
    51   45   46 1
    52    2   47 1
    53    2   48 1
    54    3   49 1
    55    3   50 1
    56    4   51 1
    57    4   52 1
    58    8   53 1
    59   10   54 1
    60   13   55 1
    61   13   56 1
    62   14   57 1
    63   14   58 1
    64   15   59 1
    65   15   60 1
    66   19   61 1
    67   20   62 1
    68   21   63 1
    69   22   64 1
    70   26   65 1
    71   26   66 1
    72   30   67 1
    73   31   68 1
    74   32   69 1
    75   34   70 1
    76   34   71 1
    77   34   72 1
    78   36   73 1
    79   37   74 1
    80   37   75 1
    81   38   76 1
    82   38   77 1
    83   44   78 1
    84   45   79 1
    85   46   80 1
    86   46   81 1
@<TRIPOS>PROPERTY_DATA
  Total_Score	| 13.4203
  Crash		| -2.6477
  Polar		| 4.4139
  FragIndex	| 1
  FragRMSD	| 0.881

