@<TRIPOS>MOLECULE
BindingDB_15261
 49 51 0 0 0
SMALL
NO_CHARGES


@<TRIPOS>ATOM
1    C        -4.3575   11.1114  -19.7690  C     
2    O        -3.8873   11.7973  -20.6603  O     
3    N        -3.6162   10.2602  -19.0619  N     
4    N        -5.6483   11.3470  -19.5846  N     
5    C        -2.2886    9.8913  -19.1806  C     
6    C        -1.4629   10.2120  -20.2907  C     
7    C        -1.7285    9.1089  -18.1348  C     
8    C        -0.1355    9.7544  -20.3846  C     
9    C        -0.4055    8.6187  -18.2599  C     
10   C         0.3847    8.9118  -19.3845  C     
11   Cl        0.8117   10.2520  -21.6989  Cl    
12   N        -6.1909   10.0603  -17.6234  N     
13   N        -8.7811   10.7788  -17.8842  N     
14   C        -6.5298   10.8519  -18.6758  C     
15   C        -8.4331    9.9882  -16.8393  C     
16   C        -7.8846   11.2208  -18.7998  C     
17   C        -7.0809    9.6007  -16.7044  C     
18   O        -6.6110    8.8574  -15.6553  O     
19   O        -2.4562    8.9716  -16.9694  O     
20   C        -2.4479    7.7611  -16.1845  C     
21   C        -5.5509    6.6447  -15.7230  C     
22   C        -6.8754    7.4404  -15.7167  C     
23   C        -3.1961    6.5787  -16.8500  C     
24   C        -4.7171    6.8278  -17.0246  C     
25   C        -9.3582    9.6174  -16.0112  C     
26   N       -10.1847    9.2845  -15.2884  N     
27   O         1.5824    8.2607  -19.5241  O     
28   C         2.7116    8.8581  -18.8638  C     
29   C         3.8304    7.8016  -18.7775  C     
30   H        -4.0884    9.8176  -18.3427  H     
31   H        -6.0348   11.9914  -20.2010  H     
32   H        -1.8158   10.7727  -21.0626  H     
33   H         0.0122    8.0526  -17.5217  H     
34   H        -8.2060   11.8178  -19.5637  H     
35   H        -1.4328    7.4544  -15.9359  H     
36   H        -2.9269    8.0021  -15.2358  H     
37   H        -4.9771    6.9343  -14.8425  H     
38   H        -5.7863    5.5826  -15.6142  H     
39   H        -7.4265    7.1798  -14.8090  H     
40   H        -7.4896    7.1355  -16.5704  H     
41   H        -2.7498    6.3966  -17.8323  H     
42   H        -3.0456    5.6766  -16.2497  H     
43   H        -5.0972    6.1224  -17.7718  H     
44   H        -4.8528    7.8251  -17.4407  H     
45   H         3.0801    9.7172  -19.4312  H     
46   H         2.4531    9.1774  -17.8515  H     
47   H         4.7577    8.2544  -18.4187  H     
48   H         4.0146    7.3593  -19.7593  H     
49   H         3.5413    7.0081  -18.0831  H     
@<TRIPOS>BOND
     1    1    2 2
     2    1    3 1
     3    1    4 1
     4    3    5 1
     5    4   14 1
     6    5    6 1
     7    5    7 2
     8    6    8 2
     9    7    9 1
    10    7   19 1
    11    8   10 1
    12    8   11 1
    13    9   10 2
    14   10   27 1
    15   12   14 1
    16   12   17 2
    17   13   15 2
    18   13   16 1
    19   14   16 2
    20   15   17 1
    21   15   25 1
    22   17   18 1
    23   18   22 1
    24   19   20 1
    25   20   23 1
    26   21   22 1
    27   21   24 1
    28   23   24 1
    29   25   26 3
    30   27   28 1
    31   28   29 1
    32    3   30 1
    33    4   31 1
    34    6   32 1
    35    9   33 1
    36   16   34 1
    37   20   35 1
    38   20   36 1
    39   21   37 1
    40   21   38 1
    41   22   39 1
    42   22   40 1
    43   23   41 1
    44   23   42 1
    45   24   43 1
    46   24   44 1
    47   28   45 1
    48   28   46 1
    49   29   47 1
    50   29   48 1
    51   29   49 1
@<TRIPOS>PROPERTY_DATA
  Total_Score	| 7.5446
  Crash		| -1.1285
  Polar		| 1.7893
  FragIndex	| 1
  FragRMSD	| 1.001

