@<TRIPOS>MOLECULE
BindingDB_15249
 39 41 0 0 0
SMALL
NO_CHARGES


@<TRIPOS>ATOM
1    C        -4.3623   10.9906  -19.8370  C     
2    O        -3.8305   11.5907  -20.7607  O     
3    N        -3.7141   10.0569  -19.1403  N     
4    N        -5.6385   11.3082  -19.6626  N     
5    C        -2.4098    9.6397  -19.2548  C     
6    C        -1.3700   10.4562  -19.7702  C     
7    C        -2.0867    8.3255  -18.8265  C     
8    C        -0.0796    9.9435  -19.9826  C     
9    C        -0.7740    7.8316  -19.0032  C     
10   C         0.2215    8.6302  -19.5886  C     
11   Cl        1.0912   10.8891  -20.7615  Cl    
12   N        -6.2307   10.1266  -17.6453  N     
13   N        -8.7678   10.9915  -17.8912  N     
14   C        -6.5396   10.8860  -18.7301  C     
15   C        -8.4506   10.2270  -16.8180  C     
16   C        -7.8696   11.3364  -18.8396  C     
17   C        -7.1179    9.7726  -16.6715  C     
18   O        -6.7403    9.0599  -15.5513  O     
19   O        -3.0762    7.4926  -18.3555  O     
20   C        -2.9031    7.0225  -17.0026  C     
21   C        -5.4674    8.3754  -15.5498  C     
22   C        -9.3955    9.9846  -15.9671  C     
23   N       -10.2472    9.7780  -15.2227  N     
24   C        -4.1785    6.2996  -16.5047  C     
25   C        -5.4692    7.1586  -16.5144  C     
26   H        -4.2580    9.5472  -18.5240  H     
27   H        -5.9905   11.9592  -20.2944  H     
28   H        -1.5365   11.4339  -19.9998  H     
29   H        -0.5387    6.8762  -18.7294  H     
30   H         1.1628    8.2510  -19.7248  H     
31   H        -8.1676   11.9301  -19.6117  H     
32   H        -2.0820    6.3032  -16.9693  H     
33   H        -2.6663    7.8475  -16.3258  H     
34   H        -4.6574    9.0686  -15.7910  H     
35   H        -5.2918    8.0169  -14.5334  H     
36   H        -4.3539    5.4294  -17.1469  H     
37   H        -4.0031    5.9239  -15.4926  H     
38   H        -6.3053    6.5154  -16.2312  H     
39   H        -5.6509    7.4993  -17.5360  H     
@<TRIPOS>BOND
     1    1    2 2
     2    1    3 1
     3    1    4 1
     4    3    5 1
     5    4   14 1
     6    5    6 1
     7    5    7 2
     8    6    8 2
     9    7    9 1
    10    7   19 1
    11    8   10 1
    12    8   11 1
    13    9   10 2
    14   12   14 1
    15   12   17 2
    16   13   15 2
    17   13   16 1
    18   14   16 2
    19   15   17 1
    20   15   22 1
    21   17   18 1
    22   18   21 1
    23   19   20 1
    24   20   24 1
    25   21   25 1
    26   22   23 3
    27   24   25 1
    28    3   26 1
    29    4   27 1
    30    6   28 1
    31    9   29 1
    32   10   30 1
    33   16   31 1
    34   20   32 1
    35   20   33 1
    36   21   34 1
    37   21   35 1
    38   24   36 1
    39   24   37 1
    40   25   38 1
    41   25   39 1
@<TRIPOS>PROPERTY_DATA
  Total_Score	| 5.4726
  Crash		| -1.3899
  Polar		| 1.9677
  FragIndex	| 1
  FragRMSD	| 0.598

