@<TRIPOS>MOLECULE
BindingDB_50224893
 40 42 0 0 0
SMALL
NO_CHARGES


@<TRIPOS>ATOM
1    C         0.0486    9.8473  -20.4507  C     
2    C         0.6747    9.1816  -19.3793  C     
3    C        -0.0706    8.8755  -18.2301  C     
4    C        -1.4514    9.1618  -18.1615  C     
5    C        -2.1060    9.8017  -19.2458  C     
6    C        -1.3342   10.1179  -20.3962  C     
7    N        -3.4530   10.0761  -19.1219  N     
8    C        -4.1851   11.0316  -19.6968  C     
9    N        -5.4771   11.2486  -19.4765  N     
10   O        -3.6823   11.8526  -20.4508  O     
11   C        -6.3804   10.5588  -18.7358  C     
12   N        -6.1119    9.4010  -18.0766  N     
13   C        -7.0227    8.6981  -17.3462  C     
14   C        -8.3392    9.2045  -17.2837  C     
15   N        -8.6282   10.3550  -17.9411  N     
16   C        -7.7021   11.0437  -18.6588  C     
17   C        -9.2830    8.5844  -16.6358  C     
18   N       -10.1061    8.0264  -16.0622  N     
19   O        -6.7269    7.5093  -16.7160  O     
20   O        -2.1410    8.9118  -16.9973  O     
21   C        -2.1905    7.5346  -16.5656  C     
22   C        -5.3587    7.0832  -16.6070  C     
23   C        -3.1112    7.4040  -15.3304  C     
24   C        -4.5651    7.9010  -15.5505  C     
25   Cl        0.9393   10.3472  -21.8025  Cl    
26   O         1.9848    8.8257  -19.4212  O     
27   H         0.4020    8.4493  -17.4305  H     
28   H        -1.7720   10.5419  -21.2163  H     
29   H        -3.9178    9.5480  -18.4594  H     
30   H        -5.8415   12.0322  -19.9265  H     
31   H        -7.9796   11.9014  -19.1406  H     
32   H        -2.5484    6.8887  -17.3721  H     
33   H        -1.1962    7.1893  -16.2752  H     
34   H        -5.3798    6.0397  -16.2889  H     
35   H        -4.8750    7.1244  -17.5845  H     
36   H        -3.1329    6.3584  -15.0153  H     
37   H        -2.6692    7.9831  -14.5140  H     
38   H        -4.5436    8.9557  -15.8370  H     
39   H        -5.0961    7.8371  -14.5969  H     
40   H         2.4812    9.6779  -19.3347  H     
@<TRIPOS>BOND
     1    1    2 2
     2    1    6 1
     3    1   25 1
     4    2    3 1
     5    2   26 1
     6    3    4 2
     7    4    5 1
     8    4   20 1
     9    5    6 2
    10    5    7 1
    11    7    8 1
    12    8    9 1
    13    8   10 2
    14    9   11 1
    15   11   12 2
    16   11   16 1
    17   12   13 1
    18   13   14 2
    19   13   19 1
    20   14   15 1
    21   14   17 1
    22   15   16 2
    23   17   18 3
    24   19   22 1
    25   20   21 1
    26   21   23 1
    27   22   24 1
    28   23   24 1
    29    3   27 1
    30    6   28 1
    31    7   29 1
    32    9   30 1
    33   16   31 1
    34   21   32 1
    35   21   33 1
    36   22   34 1
    37   22   35 1
    38   23   36 1
    39   23   37 1
    40   24   38 1
    41   24   39 1
    42   26   40 1
@<TRIPOS>PROPERTY_DATA
  Total_Score	| 7.1481
  Crash		| -0.7168
  Polar		| 2.0221
  FragIndex	| 1
  FragRMSD	| 0.888

