@<TRIPOS>MOLECULE
BindingDB_24650
 43 45 0 0 0
SMALL
NO_CHARGES


@<TRIPOS>ATOM
1    C        28.0424    5.4099   64.6646  C     
2    C        26.8947    5.0002   63.9637  C     
3    C        26.7118    3.6716   64.3093  C     
4    N        28.4980    4.3283   65.3329  N     
5    N        27.7159    3.3218   65.1169  N     
6    C        28.6224    6.6657   64.7577  C     
7    O        27.9998    7.6330   64.3419  O     
8    N        26.0493    5.6158   63.0858  N     
9    C        26.3682    6.4525   62.1031  C     
10   O        27.5555    6.6821   61.9140  O     
11   C        25.4120    7.0320   61.2458  C     
12   C        24.8578    8.1972   59.1357  C     
13   C        23.5423    8.3957   59.5724  C     
14   C        23.1411    7.9001   60.8214  C     
15   C        25.7806    7.5212   59.9553  C     
16   C        24.0560    7.2178   61.6458  C     
17   F        26.9834    7.3691   59.4622  F     
18   F        23.5992    6.8354   62.8103  F     
19   C        32.2675    9.4240   66.7423  C     
20   C        31.3627    8.3458   64.1429  C     
21   C        31.4639    8.0973   66.6701  C     
22   C        30.5284    8.0802   65.4275  C     
23   N        29.8164    6.8338   65.3233  N     
24   C        33.0017    9.7218   65.4080  C     
25   N        32.0837    9.6335   64.2484  N     
26   H        25.9698    3.0494   63.9804  H     
27   H        27.8372    2.4343   65.4852  H     
28   H        25.1315    5.3057   63.1049  H     
29   H        25.1414    8.5538   58.2192  H     
30   H        22.8792    8.9060   58.9864  H     
31   H        22.1843    8.0658   61.1394  H     
32   H        31.5796   10.2466   66.9608  H     
33   H        32.9933    9.3721   67.5565  H     
34   H        32.0785    7.5346   63.9759  H     
35   H        30.7024    8.3947   63.2746  H     
36   H        32.1606    7.2544   66.6255  H     
37   H        30.8644    7.9926   67.5789  H     
38   H        29.8150    8.9029   65.5494  H     
39   H        30.2739    6.0395   65.6484  H     
40   H        33.4197   10.7299   65.4388  H     
41   H        33.8261    9.0176   65.2700  H     
42   H        32.6233    9.7708   63.3911  H     
43   H        31.3922   10.3828   64.3227  H     
@<TRIPOS>BOND
     1    1    2 1
     2    1    4 2
     3    1    6 1
     4    2    3 2
     5    2    8 1
     6    3    5 1
     7    4    5 1
     8    6    7 2
     9    6   23 am
    10    8    9 am
    11    9   10 2
    12    9   11 1
    13   11   15 2
    14   11   16 1
    15   12   13 2
    16   12   15 1
    17   13   14 1
    18   14   16 2
    19   15   17 1
    20   16   18 1
    21   19   21 1
    22   19   24 1
    23   20   22 1
    24   20   25 1
    25   21   22 1
    26   22   23 1
    27   24   25 1
    28    3   26 1
    29    5   27 1
    30    8   28 1
    31   12   29 1
    32   13   30 1
    33   14   31 1
    34   19   32 1
    35   19   33 1
    36   20   34 1
    37   20   35 1
    38   21   36 1
    39   21   37 1
    40   22   38 1
    41   23   39 1
    42   24   40 1
    43   24   41 1
    44   25   42 1
    45   25   43 1
@<TRIPOS>PROPERTY_DATA
  Total_Score	| 8.5990
  Crash		| -1.2344
  Polar		| 4.9230
  FragIndex	| 1
  FragRMSD	| 1.045

