@<TRIPOS>MOLECULE
BindingDB_24643
 37 39 0 0 0
SMALL
NO_CHARGES


@<TRIPOS>ATOM
1    C        28.4004    5.4524   64.4788  C     
2    C        27.2295    5.1447   63.7746  C     
3    C        26.8558    3.8844   64.2189  C     
4    N        28.6611    4.4024   65.2844  N     
5    N        27.7603    3.4908   65.1224  N     
6    C        29.2081    6.5777   64.3879  C     
7    O        29.0034    7.3828   63.4856  O     
8    N        30.1826    6.7758   65.2650  N     
9    C        31.0542    7.8198   65.2713  C     
10   C        32.9642    9.0109   64.3291  C     
11   C        32.0271    7.9654   64.2612  C     
12   C        31.0387    8.7145   66.3672  C     
13   C        31.9593    9.7742   66.4228  C     
14   C        32.9217    9.9244   65.4028  C     
15   F        33.7942   10.8927   65.4706  F     
16   N        26.6185    5.9129   62.8301  N     
17   C        25.3582    5.8376   62.4079  C     
18   O        24.5607    5.0559   62.9150  O     
19   C        24.8915    6.7424   61.4640  C     
20   C        23.1314    8.2572   60.6720  C     
21   C        23.9347    8.6344   59.5825  C     
22   C        25.2155    8.0741   59.4289  C     
23   C        25.6963    7.1469   60.3680  C     
24   C        23.5944    7.3041   61.5912  C     
25   H        26.0575    3.3257   63.9180  H     
26   H        27.7410    2.6337   65.5671  H     
27   H        30.2907    6.1396   65.9852  H     
28   H        33.6825    9.0905   63.6136  H     
29   H        32.0745    7.2874   63.4966  H     
30   H        30.3559    8.6025   67.1212  H     
31   H        31.9367   10.4216   67.2118  H     
32   H        27.1494    6.6342   62.4565  H     
33   H        22.2120    8.6860   60.8065  H     
34   H        23.5901    9.3208   58.9074  H     
35   H        25.8017    8.3492   58.6362  H     
36   H        26.6339    6.7569   60.2323  H     
37   H        22.9911    7.0525   62.3791  H     
@<TRIPOS>BOND
     1    1    2 1
     2    1    4 2
     3    1    6 1
     4    2    3 2
     5    2   16 1
     6    3    5 1
     7    4    5 1
     8    6    7 2
     9    6    8 am
    10    8    9 1
    11    9   11 2
    12    9   12 1
    13   10   11 1
    14   10   14 2
    15   12   13 2
    16   13   14 1
    17   14   15 1
    18   16   17 am
    19   17   18 2
    20   17   19 1
    21   19   23 1
    22   19   24 2
    23   20   21 2
    24   20   24 1
    25   21   22 1
    26   22   23 2
    27    3   25 1
    28    5   26 1
    29    8   27 1
    30   10   28 1
    31   11   29 1
    32   12   30 1
    33   13   31 1
    34   16   32 1
    35   20   33 1
    36   21   34 1
    37   22   35 1
    38   23   36 1
    39   24   37 1
@<TRIPOS>PROPERTY_DATA
  Total_Score	| 6.1732
  Crash		| -0.8040
  Polar		| 2.6490
  FragIndex	| 1
  FragRMSD	| 0.655

