@<TRIPOS>MOLECULE
BindingDB_24652
 47 49 0 0 0
SMALL
NO_CHARGES


@<TRIPOS>ATOM
1    C        28.1376    5.5190   64.7490  C     
2    C        27.1187    5.1022   63.8749  C     
3    C        26.9596    3.7474   64.1360  C     
4    N        28.5441    4.4368   65.4347  N     
5    N        27.8436    3.4115   65.0774  N     
6    C        28.6397    6.8001   64.9186  C     
7    O        27.9747    7.7639   64.5354  O     
8    N        26.5237    5.8904   62.9386  N     
9    C        25.6455    5.5758   61.9879  C     
10   O        25.0674    4.4853   61.9751  O     
11   C        25.3007    6.5479   61.0552  C     
12   C        23.6418    8.0314   60.0198  C     
13   C        24.6462    8.6491   59.2603  C     
14   C        25.9786    8.2123   59.3696  C     
15   C        23.9458    6.9542   60.8770  C     
16   C        26.3033    7.1705   60.2588  C     
17   F        27.5548    6.7797   60.2953  F     
18   C        30.8766    9.4656   63.7639  C     
19   C        31.9643    8.0277   66.1087  C     
20   C        30.1401    9.4978   65.1167  C     
21   C        30.4196    8.2147   65.9693  C     
22   N        29.8198    6.9813   65.5100  N     
23   C        32.7054    8.1080   64.7399  C     
24   N        32.3289    9.3337   63.9985  N     
25   O        22.9214    6.3471   61.5520  O     
26   C        22.1298    5.4761   60.7198  C     
27   H        26.3162    3.0884   63.6924  H     
28   H        27.9381    2.5188   65.4310  H     
29   H        26.8306    6.8112   62.9297  H     
30   H        22.6752    8.3545   59.9351  H     
31   H        24.4009    9.4123   58.6190  H     
32   H        26.7030    8.6503   58.7961  H     
33   H        30.5074    8.6358   63.1553  H     
34   H        30.6927   10.3976   63.2239  H     
35   H        32.3741    8.8118   66.7579  H     
36   H        32.1932    7.0642   66.5763  H     
37   H        30.4761   10.3808   65.6760  H     
38   H        29.0846    9.6509   64.9357  H     
39   H        30.0315    8.4016   66.9744  H     
40   H        30.2902    6.1655   65.7744  H     
41   H        33.7817    8.1515   64.9122  H     
42   H        32.4883    7.2250   64.1318  H     
43   H        32.7888    9.3555   63.0861  H     
44   H        32.6450   10.1438   64.5391  H     
45   H        21.5892    6.0475   59.9611  H     
46   H        21.3925    4.9698   61.3419  H     
47   H        22.7459    4.7130   60.2343  H     
@<TRIPOS>BOND
     1    1    2 1
     2    1    4 2
     3    1    6 1
     4    2    3 2
     5    2    8 1
     6    3    5 1
     7    4    5 1
     8    6    7 2
     9    6   22 am
    10    8    9 am
    11    9   10 2
    12    9   11 1
    13   11   15 2
    14   11   16 1
    15   12   13 2
    16   12   15 1
    17   13   14 1
    18   14   16 2
    19   15   25 1
    20   16   17 1
    21   18   20 1
    22   18   24 1
    23   19   21 1
    24   19   23 1
    25   20   21 1
    26   21   22 1
    27   23   24 1
    28   25   26 1
    29    3   27 1
    30    5   28 1
    31    8   29 1
    32   12   30 1
    33   13   31 1
    34   14   32 1
    35   18   33 1
    36   18   34 1
    37   19   35 1
    38   19   36 1
    39   20   37 1
    40   20   38 1
    41   21   39 1
    42   22   40 1
    43   23   41 1
    44   23   42 1
    45   24   43 1
    46   24   44 1
    47   26   45 1
    48   26   46 1
    49   26   47 1
@<TRIPOS>PROPERTY_DATA
  Total_Score	| 9.2940
  Crash		| -2.1596
  Polar		| 4.4184
  FragIndex	| 1
  FragRMSD	| 1.047

