@<TRIPOS>MOLECULE
BindingDB_24648
 46 48 0 0 0
SMALL
NO_CHARGES


@<TRIPOS>ATOM
1    C        28.2666    5.4232   64.8977  C     
2    C        27.1794    5.1443   64.0583  C     
3    C        26.9004    3.7962   64.2632  C     
4    N        28.5754    4.2722   65.5313  N     
5    N        27.7716    3.3344   65.1598  N     
6    C        28.9726    6.6057   65.0818  C     
7    O        28.5303    7.6418   64.6133  O     
8    N        26.6069    6.0023   63.1624  N     
9    C        25.4705    5.8507   62.4857  C     
10   O        24.7216    4.9022   62.6914  O     
11   C        25.0955    6.7718   61.5103  C     
12   C        23.3765    8.1718   60.4457  C     
13   C        24.3052    8.5996   59.4839  C     
14   C        25.6259    8.1263   59.5283  C     
15   C        23.7618    7.2616   61.4478  C     
16   C        26.0242    7.2243   60.5341  C     
17   F        22.8593    6.9161   62.3299  F     
18   F        27.2576    6.7887   60.4977  F     
19   C        31.7731    8.4274   63.6411  C     
20   C        31.5258    9.8968   64.0709  C     
21   C        30.4884    9.9953   65.2163  C     
22   C        30.7544    9.0105   66.3894  C     
23   C        32.1844    7.5297   64.8309  C     
24   C        31.1414    7.5558   65.9846  C     
25   N        30.1013    6.5802   65.7811  N     
26   N        32.7908   10.5560   64.4224  N     
27   H        26.1996    3.2205   63.7950  H     
28   H        27.8116    2.4158   65.4637  H     
29   H        27.0951    6.8250   62.9979  H     
30   H        22.4203    8.5342   60.4206  H     
31   H        24.0199    9.2564   58.7540  H     
32   H        26.2973    8.4382   58.8217  H     
33   H        30.8632    8.0264   63.1889  H     
34   H        32.5585    8.3937   62.8860  H     
35   H        31.1234   10.4376   63.2103  H     
36   H        30.4739   11.0156   65.6055  H     
37   H        29.5018    9.8170   64.7911  H     
38   H        31.5781    9.4285   66.9772  H     
39   H        29.8853    8.9736   67.0479  H     
40   H        32.3342    6.5046   64.4754  H     
41   H        33.1483    7.8796   65.2108  H     
42   H        31.6697    7.1524   66.8565  H     
43   H        30.3320    5.7073   66.1273  H     
44   H        33.3071   10.0012   65.1071  H     
45   H        32.6064   11.4855   64.8041  H     
46   H        33.3317   10.6423   63.5621  H     
@<TRIPOS>BOND
     1    1    2 1
     2    1    4 2
     3    1    6 1
     4    2    3 2
     5    2    8 1
     6    3    5 1
     7    4    5 1
     8    6    7 2
     9    6   25 am
    10    8    9 am
    11    9   10 2
    12    9   11 1
    13   11   15 2
    14   11   16 1
    15   12   13 2
    16   12   15 1
    17   13   14 1
    18   14   16 2
    19   15   17 1
    20   16   18 1
    21   19   20 1
    22   19   23 1
    23   20   21 1
    24   20   26 1
    25   21   22 1
    26   22   24 1
    27   23   24 1
    28   24   25 1
    29    3   27 1
    30    5   28 1
    31    8   29 1
    32   12   30 1
    33   13   31 1
    34   14   32 1
    35   19   33 1
    36   19   34 1
    37   20   35 1
    38   21   36 1
    39   21   37 1
    40   22   38 1
    41   22   39 1
    42   23   40 1
    43   23   41 1
    44   24   42 1
    45   25   43 1
    46   26   44 1
    47   26   45 1
    48   26   46 1
@<TRIPOS>PROPERTY_DATA
  Total_Score	| 7.8815
  Crash		| -2.0563
  Polar		| 3.7266
  FragIndex	| 1
  FragRMSD	| 1.087

