@<TRIPOS>MOLECULE
BindingDB_24653
 43 45 0 0 0
SMALL
NO_CHARGES


@<TRIPOS>ATOM
1    C        28.1234    5.5021   64.6256  C     
2    C        26.9634    5.0900   63.9460  C     
3    C        26.7816    3.7633   64.3012  C     
4    N        28.5846    4.4193   65.2888  N     
5    N        27.7966    3.4135   65.0919  N     
6    C        28.7123    6.7573   64.7210  C     
7    O        28.0386    7.7467   64.4637  O     
8    N        26.0999    5.6749   63.0668  N     
9    C        26.3612    6.5543   62.1085  C     
10   O        27.5361    6.8566   61.9473  O     
11   C        25.3828    7.0944   61.2403  C     
12   C        23.0641    7.7261   60.6629  C     
13   C        23.5064    8.4225   59.5318  C     
14   C        24.8680    8.4288   59.2140  C     
15   C        23.9743    7.0490   61.5027  C     
16   C        25.7915    7.7739   60.0483  C     
17   F        27.0356    7.8197   59.6426  F     
18   C        32.8442    9.3394   64.5137  C     
19   C        31.1797    8.3145   66.7384  C     
20   C        31.9718    8.0687   64.3327  C     
21   C        30.7271    8.1073   65.2653  C     
22   N        29.9705    6.8870   65.1372  N     
23   C        32.0607    9.5854   66.8712  C     
24   N        33.2079    9.5623   65.9334  N     
25   Cl       23.2300    6.2483   62.8056  Cl    
26   H        26.0332    3.1412   63.9875  H     
27   H        27.9167    2.5260   65.4618  H     
28   H        25.2108    5.2952   63.0616  H     
29   H        22.0646    7.7287   60.8765  H     
30   H        22.8376    8.9148   58.9359  H     
31   H        25.1832    8.9182   58.3716  H     
32   H        33.7629    9.2324   63.9327  H     
33   H        32.3087   10.2146   64.1362  H     
34   H        30.3040    8.4149   67.3847  H     
35   H        31.7512    7.4451   67.0776  H     
36   H        31.6507    7.9987   63.2897  H     
37   H        32.5786    7.1861   64.5595  H     
38   H        30.1212    8.9737   64.9786  H     
39   H        30.4452    6.0672   65.3545  H     
40   H        31.4556   10.4764   66.6823  H     
41   H        32.4480    9.6518   67.8898  H     
42   H        33.8488    8.8229   66.2257  H     
43   H        33.7012   10.4551   66.0036  H     
@<TRIPOS>BOND
     1    1    2 1
     2    1    4 2
     3    1    6 1
     4    2    3 2
     5    2    8 1
     6    3    5 1
     7    4    5 1
     8    6    7 2
     9    6   22 am
    10    8    9 am
    11    9   10 2
    12    9   11 1
    13   11   15 2
    14   11   16 1
    15   12   13 2
    16   12   15 1
    17   13   14 1
    18   14   16 2
    19   15   25 1
    20   16   17 1
    21   18   20 1
    22   18   24 1
    23   19   21 1
    24   19   23 1
    25   20   21 1
    26   21   22 1
    27   23   24 1
    28    3   26 1
    29    5   27 1
    30    8   28 1
    31   12   29 1
    32   13   30 1
    33   14   31 1
    34   18   32 1
    35   18   33 1
    36   19   34 1
    37   19   35 1
    38   20   36 1
    39   20   37 1
    40   21   38 1
    41   22   39 1
    42   23   40 1
    43   23   41 1
    44   24   42 1
    45   24   43 1
@<TRIPOS>PROPERTY_DATA
  Total_Score	| 8.0444
  Crash		| -1.2074
  Polar		| 3.9423
  FragIndex	| 1
  FragRMSD	| 1.090

