@<TRIPOS>MOLECULE
BindingDB_24645
 37 39 0 0 0
SMALL
NO_CHARGES


@<TRIPOS>ATOM
1    C        28.1577    5.4621   64.6233  C     
2    C        27.0897    5.0772   63.7961  C     
3    C        26.9276    3.7155   64.0428  C     
4    N        28.5680    4.3626   65.2829  N     
5    N        27.8432    3.3471   64.9409  N     
6    C        28.7233    6.7292   64.7883  C     
7    O        28.1969    7.6943   64.2594  O     
8    N        29.8175    6.8840   65.5279  N     
9    N        26.4168    5.8916   62.9178  N     
10   C        25.3722    5.6209   62.1515  C     
11   O        24.7859    4.5462   62.1799  O     
12   C        24.8685    6.6001   61.3239  C     
13   C        25.0675    8.0239   59.3335  C     
14   C        23.8092    8.5936   59.6040  C     
15   C        23.0762    8.1664   60.7260  C     
16   C        25.5961    7.0336   60.1891  C     
17   C        23.5991    7.1693   61.5762  C     
18   F        26.7508    6.4998   59.8883  F     
19   F        22.8978    6.8082   62.6147  F     
20   C        30.4664    8.1193   65.8440  C     
21   C        31.9139    8.0970   65.2977  C     
22   C        32.2125    8.8936   64.0192  C     
23   C        32.7356    9.3941   65.3704  C     
24   H        26.2561    3.0792   63.6102  H     
25   H        27.9539    2.4504   65.2742  H     
26   H        30.2215    6.0913   65.8944  H     
27   H        26.7544    6.7986   62.8576  H     
28   H        25.5981    8.3366   58.5118  H     
29   H        23.4309    9.3212   58.9872  H     
30   H        22.1640    8.5938   60.9270  H     
31   H        29.9209    8.9817   65.4621  H     
32   H        30.5091    8.2000   66.9320  H     
33   H        32.4880    7.1753   65.4038  H     
34   H        32.9694    8.4690   63.3539  H     
35   H        31.3874    9.4632   63.5882  H     
36   H        32.2367   10.2906   65.7512  H     
37   H        33.8130    9.2812   65.5171  H     
@<TRIPOS>BOND
     1    1    2 1
     2    1    4 2
     3    1    6 1
     4    2    3 2
     5    2    9 1
     6    3    5 1
     7    4    5 1
     8    6    7 2
     9    6    8 am
    10    8   20 1
    11    9   10 am
    12   10   11 2
    13   10   12 1
    14   12   16 2
    15   12   17 1
    16   13   14 2
    17   13   16 1
    18   14   15 1
    19   15   17 2
    20   16   18 1
    21   17   19 1
    22   20   21 1
    23   21   22 1
    24   21   23 1
    25   22   23 1
    26    3   24 1
    27    5   25 1
    28    8   26 1
    29    9   27 1
    30   13   28 1
    31   14   29 1
    32   15   30 1
    33   20   31 1
    34   20   32 1
    35   21   33 1
    36   22   34 1
    37   22   35 1
    38   23   36 1
    39   23   37 1
@<TRIPOS>PROPERTY_DATA
  Total_Score	| 6.7479
  Crash		| -0.6955
  Polar		| 3.0938
  FragIndex	| 1
  FragRMSD	| 0.768

