@<TRIPOS>MOLECULE
BindingDB_24644
 37 39 0 0 0
SMALL
NO_CHARGES


@<TRIPOS>ATOM
1    C        28.4213    5.4446   64.4652  C     
2    C        27.2693    5.1068   63.7365  C     
3    C        26.8995    3.8440   64.1841  C     
4    N        28.6657    4.4042   65.2925  N     
5    N        27.7703    3.4871   65.1271  N     
6    C        29.2164    6.5909   64.3831  C     
7    O        28.9365    7.4377   63.5495  O     
8    N        30.2795    6.7536   65.1763  N     
9    C        31.1285    7.8212   65.2456  C     
10   C        31.9316    9.7885   66.4597  C     
11   C        31.0697    8.6848   66.3640  C     
12   C        32.0853    8.0774   64.2314  C     
13   C        32.9794    9.1546   64.3561  C     
14   C        32.9098   10.0112   65.4692  C     
15   F        33.7031   11.0402   65.5549  F     
16   N        26.6459    5.8541   62.7801  N     
17   C        25.4250    5.6948   62.2868  C     
18   O        24.6579    4.8374   62.7113  O     
19   C        24.9333    6.6200   61.3918  C     
20   C        25.2028    8.0183   59.3972  C     
21   C        23.9322    8.5886   59.6231  C     
22   C        23.1557    8.1676   60.7247  C     
23   C        25.7195    7.0610   60.2850  C     
24   C        23.6308    7.1663   61.5821  C     
25   F        26.9131    6.5606   60.0379  F     
26   F        22.8580    6.8059   62.5893  F     
27   H        26.1256    3.2639   63.8593  H     
28   H        27.7341    2.6390   65.5975  H     
29   H        30.4075    6.0958   65.8672  H     
30   H        31.8692   10.4096   67.2694  H     
31   H        30.3860    8.5206   67.1115  H     
32   H        32.1530    7.4373   63.4335  H     
33   H        33.6993    9.3021   63.6414  H     
34   H        27.1381    6.6225   62.4562  H     
35   H        25.7596    8.3271   58.5946  H     
36   H        23.5802    9.3137   58.9989  H     
37   H        22.2384    8.5886   60.8961  H     
@<TRIPOS>BOND
     1    1    2 1
     2    1    4 2
     3    1    6 1
     4    2    3 2
     5    2   16 1
     6    3    5 1
     7    4    5 1
     8    6    7 2
     9    6    8 am
    10    8    9 1
    11    9   11 2
    12    9   12 1
    13   10   11 1
    14   10   14 2
    15   12   13 2
    16   13   14 1
    17   14   15 1
    18   16   17 am
    19   17   18 2
    20   17   19 1
    21   19   23 2
    22   19   24 1
    23   20   21 2
    24   20   23 1
    25   21   22 1
    26   22   24 2
    27   23   25 1
    28   24   26 1
    29    3   27 1
    30    5   28 1
    31    8   29 1
    32   10   30 1
    33   11   31 1
    34   12   32 1
    35   13   33 1
    36   16   34 1
    37   20   35 1
    38   21   36 1
    39   22   37 1
@<TRIPOS>PROPERTY_DATA
  Total_Score	| 6.5809
  Crash		| -0.7507
  Polar		| 2.8668
  FragIndex	| 1
  FragRMSD	| 0.619

