@<TRIPOS>MOLECULE
BindingDB_24649
 43 45 0 0 0
SMALL
NO_CHARGES


@<TRIPOS>ATOM
1    C        28.3156    5.4922   64.5492  C     
2    C        27.1468    5.1472   63.8493  C     
3    C        26.8303    3.8630   64.2953  C     
4    N        28.6535    4.4308   65.3144  N     
5    N        27.7808    3.4876   65.1558  N     
6    C        29.0263    6.6891   64.5062  C     
7    O        28.6128    7.6090   63.8123  O     
8    N        26.4860    5.9455   62.9550  N     
9    C        25.5268    5.6236   62.1029  C     
10   O        25.0319    4.4954   62.0305  O     
11   C        25.0024    6.6186   61.2988  C     
12   C        23.1706    8.1539   60.7403  C     
13   C        23.8837    8.6068   59.6177  C     
14   C        25.1512    8.0781   59.3386  C     
15   C        23.7232    7.1599   61.5744  C     
16   C        25.7210    7.0946   60.1730  C     
17   F        23.0317    6.7345   62.5972  F     
18   F        26.9241    6.6616   59.9006  F     
19   C        32.9024    9.4305   64.5704  C     
20   C        32.2008    9.6001   66.9696  C     
21   C        31.3576    8.3037   66.8415  C     
22   C        32.0483    8.1511   64.3857  C     
23   C        30.8511    8.1133   65.3839  C     
24   N        30.1046    6.8835   65.2597  N     
25   N        33.2987    9.6626   65.9807  N     
26   H        26.0190    3.3031   64.0328  H     
27   H        27.7889    2.6224   65.6012  H     
28   H        26.8220    6.8608   62.8853  H     
29   H        22.2490    8.5462   60.9378  H     
30   H        23.4719    9.3090   58.9971  H     
31   H        25.6577    8.4120   58.5217  H     
32   H        33.8127    9.3456   63.9741  H     
33   H        32.3471   10.3057   64.2115  H     
34   H        31.5496   10.4737   66.8495  H     
35   H        32.6304    9.6353   67.9706  H     
36   H        31.9617    7.4453   67.1332  H     
37   H        30.4955    8.3615   67.5125  H     
38   H        31.6797    8.1201   63.3564  H     
39   H        32.6822    7.2762   64.5407  H     
40   H        30.1884    8.9535   65.1601  H     
41   H        30.4062    6.1335   65.7896  H     
42   H        33.9970    8.9679   66.2421  H     
43   H        33.7287   10.5925   66.0471  H     
@<TRIPOS>BOND
     1    1    2 1
     2    1    4 2
     3    1    6 1
     4    2    3 2
     5    2    8 1
     6    3    5 1
     7    4    5 1
     8    6    7 2
     9    6   24 am
    10    8    9 am
    11    9   10 2
    12    9   11 1
    13   11   15 2
    14   11   16 1
    15   12   13 2
    16   12   15 1
    17   13   14 1
    18   14   16 2
    19   15   17 1
    20   16   18 1
    21   19   22 1
    22   19   25 1
    23   20   21 1
    24   20   25 1
    25   21   23 1
    26   22   23 1
    27   23   24 1
    28    3   26 1
    29    5   27 1
    30    8   28 1
    31   12   29 1
    32   13   30 1
    33   14   31 1
    34   19   32 1
    35   19   33 1
    36   20   34 1
    37   20   35 1
    38   21   36 1
    39   21   37 1
    40   22   38 1
    41   22   39 1
    42   23   40 1
    43   24   41 1
    44   25   42 1
    45   25   43 1
@<TRIPOS>PROPERTY_DATA
  Total_Score	| 8.7945
  Crash		| -0.6616
  Polar		| 4.1966
  FragIndex	| 1
  FragRMSD	| 0.586

