@<TRIPOS>MOLECULE
BindingDB_24647
 44 46 0 0 0
SMALL
NO_CHARGES


@<TRIPOS>ATOM
1    C        28.1376    5.4890   64.7930  C     
2    C        27.1516    5.0813   63.8846  C     
3    C        27.0060    3.7101   64.0934  C     
4    N        28.5231    4.3842   65.4616  N     
5    N        27.8571    3.3564   65.0517  N     
6    C        28.6356    6.7714   65.0085  C     
7    O        28.0476    7.7329   64.5070  O     
8    N        26.5533    5.8487   62.9405  N     
9    C        25.4227    5.6145   62.2933  C     
10   O        24.7191    4.6362   62.5326  O     
11   C        24.9515    6.5698   61.4154  C     
12   C        23.1844    8.1391   60.7254  C     
13   C        23.9891    8.5981   59.6685  C     
14   C        25.2767    8.0584   59.4826  C     
15   C        23.6521    7.1297   61.5869  C     
16   C        25.7559    7.0600   60.3486  C     
17   F        22.8673    6.7738   62.5780  F     
18   F        26.9579    6.5854   60.1130  F     
19   C        32.5382    7.7196   64.8554  C     
20   C        32.2834    8.8903   63.8792  C     
21   C        30.7687    9.2400   63.7810  C     
22   C        30.1149    9.4250   65.1642  C     
23   C        31.8856    7.9539   66.2430  C     
24   O        33.0427   10.0276   64.2821  O     
25   C        30.3519    8.1978   66.1101  C     
26   N        29.7368    6.9481   65.7298  N     
27   H        26.3970    3.0621   63.5820  H     
28   H        27.9751    2.4647   65.3615  H     
29   H        27.0042    6.6753   62.7399  H     
30   H        22.2580    8.5561   60.8741  H     
31   H        23.6474    9.3263   59.0454  H     
32   H        25.8621    8.4041   58.7119  H     
33   H        32.1565    6.7977   64.4232  H     
34   H        33.6139    7.6017   64.9956  H     
35   H        32.6398    8.5874   62.8913  H     
36   H        30.6489   10.1534   63.1959  H     
37   H        30.2026    8.4318   63.2694  H     
38   H        30.5244   10.3276   65.6292  H     
39   H        29.0666    9.6262   65.0108  H     
40   H        32.0663    7.0907   66.8890  H     
41   H        32.3500    8.8238   66.7312  H     
42   H        33.3161   10.4542   63.4241  H     
43   H        29.9698    8.4685   67.1086  H     
44   H        30.1684    6.1397   66.0583  H     
@<TRIPOS>BOND
     1    1    2 1
     2    1    4 2
     3    1    6 1
     4    2    3 2
     5    2    8 1
     6    3    5 1
     7    4    5 1
     8    6    7 2
     9    6   26 am
    10    8    9 am
    11    9   10 2
    12    9   11 1
    13   11   15 2
    14   11   16 1
    15   12   13 2
    16   12   15 1
    17   13   14 1
    18   14   16 2
    19   15   17 1
    20   16   18 1
    21   19   20 1
    22   19   23 1
    23   20   21 1
    24   20   24 1
    25   21   22 1
    26   22   25 1
    27   23   25 1
    28   25   26 1
    29    3   27 1
    30    5   28 1
    31    8   29 1
    32   12   30 1
    33   13   31 1
    34   14   32 1
    35   19   33 1
    36   19   34 1
    37   20   35 1
    38   21   36 1
    39   21   37 1
    40   22   38 1
    41   22   39 1
    42   23   40 1
    43   23   41 1
    44   24   42 1
    45   25   43 1
    46   26   44 1
@<TRIPOS>PROPERTY_DATA
  Total_Score	| 6.8589
  Crash		| -2.8391
  Polar		| 3.8680
  FragIndex	| 1
  FragRMSD	| 1.081

