@<TRIPOS>MOLECULE
BindingDB_24641
 40 42 0 0 0
SMALL
NO_CHARGES


@<TRIPOS>ATOM
1    C        28.3676    5.4252   64.5760  C     
2    C        27.0987    5.1655   64.0422  C     
3    C        26.8507    3.8233   64.2987  C     
4    N        28.7956    4.2703   65.1338  N     
5    N        27.9079    3.3450   64.9704  N     
6    C        29.1117    6.5933   64.5499  C     
7    O        28.7326    7.5425   63.8651  O     
8    N        30.2236    6.6979   65.2730  N     
9    C        31.0756    7.7554   65.3173  C     
10   C        32.9158    9.0734   64.3848  C     
11   C        32.0047    8.0041   64.2794  C     
12   C        31.0839    8.5816   66.4639  C     
13   C        31.9775    9.6667   66.5531  C     
14   C        32.8936    9.9129   65.5112  C     
15   F        33.7235   10.9217   65.5935  F     
16   N        26.2709    6.0975   63.5037  N     
17   C        25.1518    5.9299   62.8147  C     
18   O        24.7499    4.8308   62.4576  O     
19   C        24.3942    7.1048   62.4260  C     
20   C        24.5535    7.5405   61.0183  C     
21   C        25.9826    8.0986   59.1030  C     
22   C        24.8988    8.7291   58.4644  C     
23   C        23.6419    8.7683   59.0954  C     
24   C        23.4663    8.1784   60.3642  C     
25   C        25.8111    7.5170   60.3721  C     
26   H        26.0149    3.2850   64.0763  H     
27   H        27.9823    2.4330   65.2885  H     
28   H        30.4440    5.9510   65.8533  H     
29   H        33.5926    9.2310   63.6362  H     
30   H        32.0351    7.3915   63.4661  H     
31   H        30.4298    8.4073   67.2335  H     
32   H        31.9584   10.2767   67.3759  H     
33   H        26.5397    7.0163   63.6488  H     
34   H        23.3420    6.9238   62.6636  H     
35   H        24.7125    7.9636   63.0241  H     
36   H        26.8964    8.0789   58.6627  H     
37   H        25.0221    9.1539   57.5432  H     
38   H        22.8559    9.2395   58.6411  H     
39   H        22.5529    8.2488   60.8190  H     
40   H        26.6285    7.1009   60.8246  H     
@<TRIPOS>BOND
     1    1    2 1
     2    1    4 2
     3    1    6 1
     4    2    3 2
     5    2   16 1
     6    3    5 1
     7    4    5 1
     8    6    7 2
     9    6    8 am
    10    8    9 1
    11    9   11 2
    12    9   12 1
    13   10   11 1
    14   10   14 2
    15   12   13 2
    16   13   14 1
    17   14   15 1
    18   16   17 am
    19   17   18 2
    20   17   19 1
    21   19   20 1
    22   20   24 2
    23   20   25 1
    24   21   22 1
    25   21   25 2
    26   22   23 2
    27   23   24 1
    28    3   26 1
    29    5   27 1
    30    8   28 1
    31   10   29 1
    32   11   30 1
    33   12   31 1
    34   13   32 1
    35   16   33 1
    36   19   34 1
    37   19   35 1
    38   21   36 1
    39   22   37 1
    40   23   38 1
    41   24   39 1
    42   25   40 1
@<TRIPOS>PROPERTY_DATA
  Total_Score	| 5.8837
  Crash		| -1.8000
  Polar		| 3.0733
  FragIndex	| 1
  FragRMSD	| 0.855

