@<TRIPOS>MOLECULE
BindingDB_24646
 43 45 0 0 0
SMALL
NO_CHARGES


@<TRIPOS>ATOM
1    C        28.0627    5.4559   64.6528  C     
2    C        26.8626    5.0586   64.0411  C     
3    C        26.6866    3.7306   64.3890  C     
4    N        28.5504    4.3649   65.2829  N     
5    N        27.7421    3.3676   65.1208  N     
6    C        28.6624    6.7090   64.6910  C     
7    O        28.0064    7.6923   64.3665  O     
8    N        29.9215    6.8431   65.1023  N     
9    N        25.9987    5.6938   63.1991  N     
10   C        26.3243    6.3761   62.1043  C     
11   O        27.5132    6.4055   61.8111  O     
12   C        25.3861    7.0057   61.2544  C     
13   C        23.1328    7.9234   60.8108  C     
14   C        23.5525    8.4170   59.5684  C     
15   C        24.8694    8.1989   59.1451  C     
16   C        24.0294    7.2231   61.6431  C     
17   C        25.7727    7.5006   59.9686  C     
18   F        23.5400    6.8341   62.7919  F     
19   F        26.9708    7.3307   59.4708  F     
20   C        30.6762    8.0663   65.2021  C     
21   C        32.7280    9.3249   64.2982  C     
22   C        33.2118    9.5958   65.7468  C     
23   C        32.0514    9.5553   66.7777  C     
24   C        31.2013    8.2617   66.6540  C     
25   C        31.8653    8.0384   64.1980  C     
26   H        25.9212    3.1174   64.1006  H     
27   H        27.8787    2.4750   65.4712  H     
28   H        30.3978    6.0268   65.3340  H     
29   H        25.0610    5.4957   63.3341  H     
30   H        22.1719    8.0968   61.1152  H     
31   H        22.9008    8.9334   58.9739  H     
32   H        25.1658    8.5506   58.2306  H     
33   H        30.0507    8.9315   64.9573  H     
34   H        32.1425   10.1806   63.9500  H     
35   H        33.5990    9.2259   63.6435  H     
36   H        33.9579    8.8452   66.0151  H     
37   H        33.6968   10.5747   65.7850  H     
38   H        32.4657    9.6185   67.7878  H     
39   H        31.4048   10.4249   66.6283  H     
40   H        30.3556    8.3236   67.3450  H     
41   H        31.8110    7.4000   66.9474  H     
42   H        32.4974    7.1660   64.3945  H     
43   H        31.4797    7.9514   63.1777  H     
@<TRIPOS>BOND
     1    1    2 1
     2    1    4 2
     3    1    6 1
     4    2    3 2
     5    2    9 1
     6    3    5 1
     7    4    5 1
     8    6    7 2
     9    6    8 am
    10    8   20 1
    11    9   10 am
    12   10   11 2
    13   10   12 1
    14   12   16 2
    15   12   17 1
    16   13   14 2
    17   13   16 1
    18   14   15 1
    19   15   17 2
    20   16   18 1
    21   17   19 1
    22   20   24 1
    23   20   25 1
    24   21   22 1
    25   21   25 1
    26   22   23 1
    27   23   24 1
    28    3   26 1
    29    5   27 1
    30    8   28 1
    31    9   29 1
    32   13   30 1
    33   14   31 1
    34   15   32 1
    35   20   33 1
    36   21   34 1
    37   21   35 1
    38   22   36 1
    39   22   37 1
    40   23   38 1
    41   23   39 1
    42   24   40 1
    43   24   41 1
    44   25   42 1
    45   25   43 1
@<TRIPOS>PROPERTY_DATA
  Total_Score	| 7.0736
  Crash		| -1.7630
  Polar		| 3.1027
  FragIndex	| 1
  FragRMSD	| 1.025

