@<TRIPOS>MOLECULE
BindingDB_24639
 30 31 0 0 0
SMALL
NO_CHARGES


@<TRIPOS>ATOM
1    C        28.3519    5.4319   64.4888  C     
2    C        27.1008    5.1811   63.8906  C     
3    C        26.8032    3.8866   64.3120  C     
4    N        28.7134    4.3361   65.1907  N     
5    N        27.7962    3.4371   65.0835  N     
6    C        29.1956    6.5120   64.3902  C     
7    O        28.9786    7.2788   63.4818  O     
8    N        30.2304    6.7077   65.2020  N     
9    C        31.1012    7.7736   65.2350  C     
10   C        32.8936    9.1915   64.3265  C     
11   C        32.0420    8.0726   64.2146  C     
12   C        31.0613    8.6051   66.3750  C     
13   C        31.9027    9.7272   66.4860  C     
14   C        32.8141   10.0290   65.4544  C     
15   F        33.5910   11.0752   65.5607  F     
16   N        26.1710    5.7913   63.0831  N     
17   C        25.9558    6.9826   62.5253  C     
18   C        24.7165    7.1089   61.7824  C     
19   O        26.6735    7.9755   62.5615  O     
20   H        25.9675    3.3473   64.0737  H     
21   H        27.8310    2.5532   65.4863  H     
22   H        30.3276    6.0609   65.9232  H     
23   H        33.5721    9.3954   63.5863  H     
24   H        32.1334    7.4691   63.3943  H     
25   H        30.4005    8.4087   67.1289  H     
26   H        31.8402   10.3237   67.3169  H     
27   H        25.4331    5.1867   62.8925  H     
28   H        24.7061    6.3944   60.9562  H     
29   H        24.5804    8.1117   61.3651  H     
30   H        23.8687    6.9026   62.4397  H     
@<TRIPOS>BOND
     1    1    2 1
     2    1    4 2
     3    1    6 1
     4    2    3 2
     5    2   16 1
     6    3    5 1
     7    4    5 1
     8    6    7 2
     9    6    8 am
    10    8    9 1
    11    9   11 2
    12    9   12 1
    13   10   11 1
    14   10   14 2
    15   12   13 2
    16   13   14 1
    17   14   15 1
    18   16   17 am
    19   17   18 1
    20   17   19 2
    21    3   20 1
    22    5   21 1
    23    8   22 1
    24   10   23 1
    25   11   24 1
    26   12   25 1
    27   13   26 1
    28   16   27 1
    29   18   28 1
    30   18   29 1
    31   18   30 1
@<TRIPOS>PROPERTY_DATA
  Total_Score	| 4.8463
  Crash		| -0.3467
  Polar		| 2.7748
  FragIndex	| 1
  FragRMSD	| 1.219

