@<TRIPOS>MOLECULE
BindingDB_24654
 43 45 0 0 0
SMALL
NO_CHARGES


@<TRIPOS>ATOM
1    C        28.2383    5.6245   64.7306  C     
2    C        27.1389    5.3026   63.9087  C     
3    C        26.9344    3.9461   64.1271  C     
4    N        28.6148    4.4877   65.3560  N     
5    N        27.8371    3.5173   65.0098  N     
6    C        28.9119    6.8182   64.9239  C     
7    O        28.2729    7.8487   64.8239  O     
8    N        26.3794    5.8965   62.9369  N     
9    C        26.0111    7.1490   62.7034  C     
10   O        26.2157    8.0891   63.4544  O     
11   C        25.2377    7.4395   61.5929  C     
12   C        24.9187    8.7066   59.5178  C     
13   C        23.6056    8.2232   59.4223  C     
14   C        23.1152    7.3193   60.3771  C     
15   C        25.7386    8.3230   60.5948  C     
16   C        23.9152    6.9284   61.4679  C     
17   C        32.9719    9.4471   64.6692  C     
18   C        31.5153    8.1857   66.9227  C     
19   C        32.1340    8.1583   64.4547  C     
20   C        30.9628    8.0910   65.4746  C     
21   N        30.1894    6.8835   65.2904  N     
22   C        32.3611    9.4762   67.0961  C     
23   N        33.4294    9.5794   66.0734  N     
24   Cl       27.3127    8.9672   60.6239  Cl    
25   Cl       23.1936    5.9070   62.6209  Cl    
26   H        26.2267    3.3560   63.6829  H     
27   H        27.9054    2.6022   65.3271  H     
28   H        26.0113    5.2605   62.3028  H     
29   H        25.2644    9.3528   58.8038  H     
30   H        23.0080    8.5306   58.6554  H     
31   H        22.1651    6.9557   60.2771  H     
32   H        33.8485    9.4224   64.0184  H     
33   H        32.3801   10.3259   64.3997  H     
34   H        30.6848    8.1990   67.6348  H     
35   H        32.1372    7.3122   67.1421  H     
36   H        31.7401    8.1511   63.4343  H     
37   H        32.7810    7.2838   64.5745  H     
38   H        30.3443    8.9809   65.3102  H     
39   H        30.6574    6.0436   65.4136  H     
40   H        31.7142   10.3558   67.0331  H     
41   H        32.8274    9.4723   68.0836  H     
42   H        34.1143    8.8471   66.2578  H     
43   H        33.8946   10.4838   66.1790  H     
@<TRIPOS>BOND
     1    1    2 1
     2    1    4 2
     3    1    6 1
     4    2    3 2
     5    2    8 1
     6    3    5 1
     7    4    5 1
     8    6    7 2
     9    6   21 am
    10    8    9 am
    11    9   10 2
    12    9   11 1
    13   11   15 2
    14   11   16 1
    15   12   13 2
    16   12   15 1
    17   13   14 1
    18   14   16 2
    19   15   24 1
    20   16   25 1
    21   17   19 1
    22   17   23 1
    23   18   20 1
    24   18   22 1
    25   19   20 1
    26   20   21 1
    27   22   23 1
    28    3   26 1
    29    5   27 1
    30    8   28 1
    31   12   29 1
    32   13   30 1
    33   14   31 1
    34   17   32 1
    35   17   33 1
    36   18   34 1
    37   18   35 1
    38   19   36 1
    39   19   37 1
    40   20   38 1
    41   21   39 1
    42   22   40 1
    43   22   41 1
    44   23   42 1
    45   23   43 1
@<TRIPOS>PROPERTY_DATA
  Total_Score	| 7.6062
  Crash		| -1.2805
  Polar		| 4.0203
  FragIndex	| 1
  FragRMSD	| 1.086

