@<TRIPOS>MOLECULE
BindingDB_24640
 31 32 0 0 0
SMALL
NO_CHARGES


@<TRIPOS>ATOM
1    C        28.4064    5.5902   64.4439  C     
2    C        27.1733    5.3413   63.8297  C     
3    C        26.7991    4.0715   64.2651  C     
4    N        28.6941    4.5053   65.1928  N     
5    N        27.7495    3.6236   65.0820  N     
6    C        29.2383    6.7133   64.3602  C     
7    O        28.8620    7.7063   63.7479  O     
8    N        30.3684    6.7485   65.0569  N     
9    C        31.2331    7.7950   65.2092  C     
10   C        33.0719    9.2173   64.4465  C     
11   C        32.1514    8.1777   64.2047  C     
12   C        31.2535    8.4618   66.4534  C     
13   C        32.1612    9.5129   66.6839  C     
14   C        33.0770    9.8833   65.6840  C     
15   F        33.9186   10.8553   65.9035  F     
16   N        26.5272    6.1788   62.9686  N     
17   C        25.3076    6.0791   62.4488  C     
18   O        24.5492    5.1552   62.7195  O     
19   C        24.8654    7.1081   61.5328  C     
20   O        23.4545    7.1075   61.3148  O     
21   H        25.9729    3.5343   64.0026  H     
22   H        27.7486    2.7486   65.4972  H     
23   H        30.5583    5.9785   65.6107  H     
24   H        33.7622    9.4618   63.7311  H     
25   H        32.1832    7.6750   63.3125  H     
26   H        30.6045    8.1813   67.1895  H     
27   H        32.1536    9.9921   67.5836  H     
28   H        27.0217    6.9735   62.7184  H     
29   H        25.1398    8.0938   61.9169  H     
30   H        25.3607    6.9625   60.5706  H     
31   H        23.0573    7.1427   62.2131  H     
@<TRIPOS>BOND
     1    1    2 1
     2    1    4 2
     3    1    6 1
     4    2    3 2
     5    2   16 1
     6    3    5 1
     7    4    5 1
     8    6    7 2
     9    6    8 am
    10    8    9 1
    11    9   11 2
    12    9   12 1
    13   10   11 1
    14   10   14 2
    15   12   13 2
    16   13   14 1
    17   14   15 1
    18   16   17 am
    19   17   18 2
    20   17   19 1
    21   19   20 1
    22    3   21 1
    23    5   22 1
    24    8   23 1
    25   10   24 1
    26   11   25 1
    27   12   26 1
    28   13   27 1
    29   16   28 1
    30   19   29 1
    31   19   30 1
    32   20   31 1
@<TRIPOS>PROPERTY_DATA
  Total_Score	| 5.0232
  Crash		| -0.3571
  Polar		| 3.0385
  FragIndex	| 1
  FragRMSD	| 0.670

