@<TRIPOS>MOLECULE
BindingDB_24651
 43 45 0 0 0
SMALL
NO_CHARGES


@<TRIPOS>ATOM
1    C        28.2420    5.4673   64.5448  C     
2    C        27.0932    5.1160   63.8207  C     
3    C        26.8190    3.8055   64.1995  C     
4    N        28.5904    4.3933   65.2852  N     
5    N        27.7531    3.4322   65.0750  N     
6    C        28.9097    6.6844   64.5511  C     
7    O        28.4791    7.6118   63.8804  O     
8    N        26.4404    5.8946   62.9167  N     
9    C        25.2510    5.6890   62.3601  C     
10   O        24.5336    4.7504   62.6792  O     
11   C        24.7485    6.6200   61.4652  C     
12   C        24.9912    8.0152   59.4565  C     
13   C        23.7180    8.5719   59.6674  C     
14   C        22.9590    8.1552   60.7722  C     
15   C        25.5072    7.0588   60.3513  C     
16   C        23.4555    7.1748   61.6511  C     
17   F        26.6945    6.5655   60.1030  F     
18   F        22.7156    6.8346   62.6769  F     
19   C        32.8395    9.3470   64.7128  C     
20   C        31.2370    8.2160   66.9258  C     
21   C        31.9740    8.0766   64.4968  C     
22   C        30.7507    8.0679   65.4561  C     
23   N        29.9986    6.8511   65.2942  N     
24   C        32.1172    9.4842   67.0945  C     
25   N        33.2400    9.5111   66.1284  N     
26   F        23.2465    9.4673   58.8504  F     
27   H        26.0678    3.2054   63.8690  H     
28   H        27.7912    2.5538   65.4819  H     
29   H        26.8869    6.7197   62.6654  H     
30   H        25.5438    8.3124   58.6519  H     
31   H        22.0457    8.5782   60.9482  H     
32   H        33.7451    9.2615   64.0993  H     
33   H        32.2929   10.2341   64.3783  H     
34   H        30.3746    8.2802   67.6002  H     
35   H        31.8224    7.3406   67.2124  H     
36   H        31.6305    8.0389   63.4567  H     
37   H        32.5905    7.1947   64.6786  H     
38   H        30.1250    8.9411   65.2274  H     
39   H        30.3311    6.0679   65.7579  H     
40   H        31.5062   10.3813   66.9709  H     
41   H        32.5315    9.4949   68.1063  H     
42   H        33.8908    8.7588   66.3667  H     
43   H        33.7285   10.3974   66.2234  H     
@<TRIPOS>BOND
     1    1    2 1
     2    1    4 2
     3    1    6 1
     4    2    3 2
     5    2    8 1
     6    3    5 1
     7    4    5 1
     8    6    7 2
     9    6   23 am
    10    8    9 am
    11    9   10 2
    12    9   11 1
    13   11   15 2
    14   11   16 1
    15   12   13 2
    16   12   15 1
    17   13   14 1
    18   13   26 1
    19   14   16 2
    20   15   17 1
    21   16   18 1
    22   19   21 1
    23   19   25 1
    24   20   22 1
    25   20   24 1
    26   21   22 1
    27   22   23 1
    28   24   25 1
    29    3   27 1
    30    5   28 1
    31    8   29 1
    32   12   30 1
    33   14   31 1
    34   19   32 1
    35   19   33 1
    36   20   34 1
    37   20   35 1
    38   21   36 1
    39   21   37 1
    40   22   38 1
    41   23   39 1
    42   24   40 1
    43   24   41 1
    44   25   42 1
    45   25   43 1
@<TRIPOS>PROPERTY_DATA
  Total_Score	| 8.7053
  Crash		| -0.7863
  Polar		| 4.0574
  FragIndex	| 1
  FragRMSD	| 0.619

